ptech18/ieee_tn/m1/2nd_ckt_z.dss
New	Line.0x00899528_drop-1-1	Bus1=0x00899528_s.3	Bus2=0x00899528_drop-1-1.3	length=0.05	linecode=1/0A	phases=1
New	Line.0x00899528_drop-1-2	Bus1=0x00899528_s.3	Bus2=0x00899528_drop-1-2.3	length=0.05	linecode=1/0A	phases=1
New	Line.0x00899528_drop-1-3	Bus1=0x00899528_s.3	Bus2=0x00899528_drop-1-3.3	length=0.05	linecode=1/0A	phases=1
New	Line.0x00899528_drop-1-4	Bus1=0x00899528_s.3	Bus2=0x00899528_drop-1-4.3	length=0.05	linecode=1/0A	phases=1
New	Line.0x00899528_snd-1	Bus1=0x00899528_s.3	Bus2=0x00899528_snd-1.3	length=0.17	linecode=4/0A	phases=1
New	Line.0x00899528_drop-1-5	Bus1=0x00899528_snd-1.3	Bus2=0x00899528_drop-1-5.3	length=0.05	linecode=1/0A	phases=1
New	Line.0x00899528_drop-1-6	Bus1=0x00899528_snd-1.3	Bus2=0x00899528_drop-1-6.3	length=0.05	linecode=1/0A	phases=1
New	Line.0x00899528_drop-1-7	Bus1=0x00899528_snd-1.3	Bus2=0x00899528_drop-1-7.3	length=0.05	linecode=1/0A	phases=1
New	Line.0x00899528_drop-1-8	Bus1=0x00899528_snd-1.3	Bus2=0x00899528_drop-1-8.3	length=0.05	linecode=1/0A	phases=1
New	Line.0x00899528_snd-2	Bus1=0x00899528_s.3	Bus2=0x00899528_snd-2.3	length=0.17	linecode=4/0A	phases=1
New	Line.0x00899528_drop-1-9	Bus1=0x00899528_snd-2.3	Bus2=0x00899528_drop-1-9.3	length=0.05	linecode=1/0A	phases=1
New	Line.0x00899528_drop-1-10	Bus1=0x00899528_snd-2.3	Bus2=0x00899528_drop-1-10.3	length=0.05	linecode=1/0A	phases=1
New	Line.0x00899528_drop-2-1	Bus1=0x00899528_snd-2.3	Bus2=0x00899528_drop-2-1.3	length=0.05	linecode=1/0A	phases=1
New	Line.0x00899528_drop-2-2	Bus1=0x00899528_snd-2.3	Bus2=0x00899528_drop-2-2.3	length=0.05	linecode=1/0A	phases=1
New	Line.0x00899528_snd-3	Bus1=0x00899528_s.3	Bus2=0x00899528_snd-3.3	length=0.17	linecode=4/0A	phases=1
New	Line.0x00899528_drop-2-3	Bus1=0x00899528_snd-3.3	Bus2=0x00899528_drop-2-3.3	length=0.05	linecode=1/0A	phases=1
New	Line.0x008996E0_snd-1	Bus1=0x008996E0_s.1	Bus2=0x008996E0_snd-1.1	length=0.06	linecode=4/0A	phases=1
New	Line.0x008996E0_drop-3-1	Bus1=0x008996E0_snd-1.1	Bus2=0x008996E0_drop-3-1.1	length=0.05	linecode=1/0A	phases=1
New	Line.0x008996E0_drop-3-2	Bus1=0x008996E0_snd-1.1	Bus2=0x008996E0_drop-3-2.1	length=0.05	linecode=1/0A	phases=1
New	Line.0x008996E0_snd-2	Bus1=0x008996E0_s.1	Bus2=0x008996E0_snd-2.1	length=0.15	linecode=4/0A	phases=1
New	Line.0x008996E0_drop-3-3	Bus1=0x008996E0_snd-2.1	Bus2=0x008996E0_drop-3-3.1	length=0.05	linecode=1/0A	phases=1
New	Line.0x008996E0_drop-3-4	Bus1=0x008996E0_snd-2.1	Bus2=0x008996E0_drop-3-4.1	length=0.05	linecode=1/0A	phases=1
New	Line.0x008996E0_snd-3	Bus1=0x008996E0_s.1	Bus2=0x008996E0_snd-3.1	length=0.06	linecode=4/0A	phases=1
New	Line.0x008996E0_drop-3-5	Bus1=0x008996E0_snd-3.1	Bus2=0x008996E0_drop-3-5.1	length=0.05	linecode=1/0A	phases=1
New	Line.0x008996E0_drop-4-1	Bus1=0x008996E0_snd-3.1	Bus2=0x008996E0_drop-4-1.1	length=0.05	linecode=1/0A	phases=1
New	Line.0x008996E0_snd-4	Bus1=0x008996E0_s.1	Bus2=0x008996E0_snd-4.1	length=0.15	linecode=4/0A	phases=1
New	Line.0x008996E0_drop-4-2	Bus1=0x008996E0_snd-4.1	Bus2=0x008996E0_drop-4-2.1	length=0.05	linecode=1/0A	phases=1
New	Line.0x0089BF70_snd-1	Bus1=0x0089BF70_s.2	Bus2=0x0089BF70_snd-1.2	length=0.03	linecode=1/0A	phases=1
New	Line.0x0089BF70_snd-2	Bus1=0x0089BF70_s.2	Bus2=0x0089BF70_snd-2.2	length=0.03	linecode=1/0A	phases=1
New	Line.0x0089BF70_drop-5-1	Bus1=0x0089BF70_snd-1.2	Bus2=0x0089BF70_drop-5-1.2	length=0.05	linecode=1/0A	phases=1
New	Line.0x0089BF70_drop-5-2	Bus1=0x0089BF70_snd-2.2	Bus2=0x0089BF70_drop-5-2.2	length=0.05	linecode=1/0A	phases=1
New	Line.0x0089BF70_drop-5-3	Bus1=0x0089BF70_snd-1.2	Bus2=0x0089BF70_drop-5-3.2	length=0.05	linecode=1/0A	phases=1
New	Line.0x0089BF70_drop-5-4	Bus1=0x0089BF70_snd-2.2	Bus2=0x0089BF70_drop-5-4.2	length=0.05	linecode=1/0A	phases=1
New	Line.0x0089BF70_drop-5-5	Bus1=0x0089BF70_snd-1.2	Bus2=0x0089BF70_drop-5-5.2	length=0.05	linecode=1/0A	phases=1
New	Line.0x0089BF70_drop-5-6	Bus1=0x0089BF70_snd-2.2	Bus2=0x0089BF70_drop-5-6.2	length=0.05	linecode=1/0A	phases=1
New	Line.0x0089BF70_drop-5-7	Bus1=0x0089BF70_snd-1.2	Bus2=0x0089BF70_drop-5-7.2	length=0.05	linecode=1/0A	phases=1
New	Line.0x0089BF70_drop-5-8	Bus1=0x0089BF70_snd-2.2	Bus2=0x0089BF70_drop-5-8.2	length=0.05	linecode=1/0A	phases=1
New	Line.0x0089BF70_drop-5-9	Bus1=0x0089BF70_snd-1.2	Bus2=0x0089BF70_drop-5-9.2	length=0.05	linecode=1/0A	phases=1
New	Line.0x0089BF70_drop-5-10	Bus1=0x0089BF70_snd-2.2	Bus2=0x0089BF70_drop-5-10.2	length=0.05	linecode=1/0A	phases=1
New	Line.0x0089BF70_drop-6-1	Bus1=0x0089BF70_snd-1.2	Bus2=0x0089BF70_drop-6-1.2	length=0.05	linecode=1/0A	phases=1
New	Line.0x0089C260_snd-1	Bus1=0x0089C260_s.3	Bus2=0x0089C260_snd-1.3	length=0.03	linecode=1/0A	phases=1
New	Line.0x0089C260_snd-2	Bus1=0x0089C260_s.3	Bus2=0x0089C260_snd-2.3	length=0.03	linecode=1/0A	phases=1
New	Line.0x0089C260_drop-7-1	Bus1=0x0089C260_snd-1.3	Bus2=0x0089C260_drop-7-1.3	length=0.05	linecode=1/0A	phases=1
New	Line.0x0089C260_drop-7-2	Bus1=0x0089C260_snd-2.3	Bus2=0x0089C260_drop-7-2.3	length=0.05	linecode=1/0A	phases=1
New	Line.0x0089C260_drop-7-3	Bus1=0x0089C260_snd-1.3	Bus2=0x0089C260_drop-7-3.3	length=0.05	linecode=1/0A	phases=1
New	Line.0x0089C260_drop-7-4	Bus1=0x0089C260_snd-2.3	Bus2=0x0089C260_drop-7-4.3	length=0.05	linecode=1/0A	phases=1
New	Line.0x0089C260_drop-7-5	Bus1=0x0089C260_snd-1.3	Bus2=0x0089C260_drop-7-5.3	length=0.05	linecode=1/0A	phases=1
New	Line.0x0089C260_drop-7-6	Bus1=0x0089C260_snd-2.3	Bus2=0x0089C260_drop-7-6.3	length=0.05	linecode=1/0A	phases=1
New	Line.0x0089C260_drop-7-7	Bus1=0x0089C260_snd-1.3	Bus2=0x0089C260_drop-7-7.3	length=0.05	linecode=1/0A	phases=1
New	Line.0x0089C260_drop-7-8	Bus1=0x0089C260_snd-2.3	Bus2=0x0089C260_drop-7-8.3	length=0.05	linecode=1/0A	phases=1
New	Line.0x0089C260_drop-7-9	Bus1=0x0089C260_snd-1.3	Bus2=0x0089C260_drop-7-9.3	length=0.05	linecode=1/0A	phases=1
New	Line.0x0089C260_drop-7-10	Bus1=0x0089C260_snd-2.3	Bus2=0x0089C260_drop-7-10.3	length=0.05	linecode=1/0A	phases=1
New	Line.0x0089C260_drop-7-11	Bus1=0x0089C260_snd-1.3	Bus2=0x0089C260_drop-7-11.3	length=0.05	linecode=1/0A	phases=1
New	Line.0x0089C940_snd-1	Bus1=0x0089C940_s.3	Bus2=0x0089C940_snd-1.3	length=0.03	linecode=1/0A	phases=1
New	Line.0x0089C940_snd-2	Bus1=0x0089C940_s.3	Bus2=0x0089C940_snd-2.3	length=0.03	linecode=1/0A	phases=1
New	Line.0x0089C940_drop-8-1	Bus1=0x0089C940_snd-1.3	Bus2=0x0089C940_drop-8-1.3	length=0.05	linecode=1/0A	phases=1
New	Line.0x0089C940_drop-8-2	Bus1=0x0089C940_snd-2.3	Bus2=0x0089C940_drop-8-2.3	length=0.05	linecode=1/0A	phases=1
New	Line.0x0089C940_drop-8-3	Bus1=0x0089C940_snd-1.3	Bus2=0x0089C940_drop-8-3.3	length=0.05	linecode=1/0A	phases=1
New	Line.0x0089C940_drop-8-4	Bus1=0x0089C940_snd-2.3	Bus2=0x0089C940_drop-8-4.3	length=0.05	linecode=1/0A	phases=1
New	Line.0x0089C940_drop-8-5	Bus1=0x0089C940_snd-1.3	Bus2=0x0089C940_drop-8-5.3	length=0.05	linecode=1/0A	phases=1
New	Line.0x0089C940_drop-8-6	Bus1=0x0089C940_snd-2.3	Bus2=0x0089C940_drop-8-6.3	length=0.05	linecode=1/0A	phases=1
New	Line.0x0089C940_drop-8-7	Bus1=0x0089C940_snd-1.3	Bus2=0x0089C940_drop-8-7.3	length=0.05	linecode=1/0A	phases=1
New	Line.0x0089C940_drop-8-8	Bus1=0x0089C940_snd-2.3	Bus2=0x0089C940_drop-8-8.3	length=0.05	linecode=1/0A	phases=1
New	Line.0x0089C940_drop-9-1	Bus1=0x0089C940_snd-1.3	Bus2=0x0089C940_drop-9-1.3	length=0.05	linecode=1/0A	phases=1
New	Line.0x0089C940_drop-9-2	Bus1=0x0089C940_snd-2.3	Bus2=0x0089C940_drop-9-2.3	length=0.05	linecode=1/0A	phases=1
New	Line.0x0089D020_snd-1	Bus1=0x0089D020_s.2	Bus2=0x0089D020_snd-1.2	length=0.03	linecode=1/0A	phases=1
New	Line.0x0089D020_snd-2	Bus1=0x0089D020_s.2	Bus2=0x0089D020_snd-2.2	length=0.03	linecode=1/0A	phases=1
New	Line.0x0089D020_drop-10-1	Bus1=0x0089D020_snd-1.2	Bus2=0x0089D020_drop-10-1.2	length=0.05	linecode=1/0A	phases=1
New	Line.0x0089D020_drop-10-2	Bus1=0x0089D020_snd-2.2	Bus2=0x0089D020_drop-10-2.2	length=0.05	linecode=1/0A	phases=1
New	Line.0x0089D020_drop-10-3	Bus1=0x0089D020_snd-1.2	Bus2=0x0089D020_drop-10-3.2	length=0.05	linecode=1/0A	phases=1
New	Line.0x0089D020_drop-11-1	Bus1=0x0089D020_snd-2.2	Bus2=0x0089D020_drop-11-1.2	length=0.05	linecode=1/0A	phases=1
New	Line.0x0089D020_drop-12-1	Bus1=0x0089D020_snd-1.2	Bus2=0x0089D020_drop-12-1.2	length=0.05	linecode=1/0A	phases=1
New	Line.0x0089D020_drop-12-2	Bus1=0x0089D020_snd-2.2	Bus2=0x0089D020_drop-12-2.2	length=0.05	linecode=1/0A	phases=1
New	Line.0x0089D700_snd-1	Bus1=0x0089D700_s.2	Bus2=0x0089D700_snd-1.2	length=0.03	linecode=1/0A	phases=1
New	Line.0x0089D700_snd-2	Bus1=0x0089D700_s.2	Bus2=0x0089D700_snd-2.2	length=0.03	linecode=1/0A	phases=1
New	Line.0x0089D700_drop-13-1	Bus1=0x0089D700_snd-1.2	Bus2=0x0089D700_drop-13-1.2	length=0.05	linecode=1/0A	phases=1
New	Line.0x0089D700_drop-13-2	Bus1=0x0089D700_snd-2.2	Bus2=0x0089D700_drop-13-2.2	length=0.05	linecode=1/0A	phases=1
New	Line.0x0089D700_drop-13-3	Bus1=0x0089D700_snd-1.2	Bus2=0x0089D700_drop-13-3.2	length=0.05	linecode=1/0A	phases=1
New	Line.0x0089D700_drop-13-4	Bus1=0x0089D700_snd-2.2	Bus2=0x0089D700_drop-13-4.2	length=0.05	linecode=1/0A	phases=1
New	Line.0x0089DDE0_snd-1	Bus1=0x0089DDE0_s.2	Bus2=0x0089DDE0_snd-1.2	length=0.03	linecode=1/0A	phases=1
New	Line.0x0089DDE0_snd-2	Bus1=0x0089DDE0_s.2	Bus2=0x0089DDE0_snd-2.2	length=0.03	linecode=1/0A	phases=1
New	Line.0x0089DDE0_drop-14-1	Bus1=0x0089DDE0_snd-1.2	Bus2=0x0089DDE0_drop-14-1.2	length=0.05	linecode=1/0A	phases=1
New	Line.0x0089DDE0_drop-14-2	Bus1=0x0089DDE0_snd-2.2	Bus2=0x0089DDE0_drop-14-2.2	length=0.05	linecode=1/0A	phases=1
New	Line.0x0089DDE0_drop-14-3	Bus1=0x0089DDE0_snd-1.2	Bus2=0x0089DDE0_drop-14-3.2	length=0.05	linecode=1/0A	phases=1
New	Line.0x0089DDE0_drop-14-4	Bus1=0x0089DDE0_snd-2.2	Bus2=0x0089DDE0_drop-14-4.2	length=0.05	linecode=1/0A	phases=1
New	Line.0x0089DDE0_drop-14-5	Bus1=0x0089DDE0_snd-1.2	Bus2=0x0089DDE0_drop-14-5.2	length=0.05	linecode=1/0A	phases=1
New	Line.0x0089DDE0_drop-14-6	Bus1=0x0089DDE0_snd-2.2	Bus2=0x0089DDE0_drop-14-6.2	length=0.05	linecode=1/0A	phases=1
New	Line.0x0089DDE0_drop-14-7	Bus1=0x0089DDE0_snd-1.2	Bus2=0x0089DDE0_drop-14-7.2	length=0.05	linecode=1/0A	phases=1
New	Line.0x0089DDE0_drop-14-8	Bus1=0x0089DDE0_snd-2.2	Bus2=0x0089DDE0_drop-14-8.2	length=0.05	linecode=1/0A	phases=1
New	Line.0x0089DDE0_drop-14-9	Bus1=0x0089DDE0_snd-1.2	Bus2=0x0089DDE0_drop-14-9.2	length=0.05	linecode=1/0A	phases=1
New	Line.0x0089DDE0_drop-14-10	Bus1=0x0089DDE0_snd-2.2	Bus2=0x0089DDE0_drop-14-10.2	length=0.05	linecode=1/0A	phases=1
New	Line.0x0089DDE0_drop-14-11	Bus1=0x0089DDE0_snd-1.2	Bus2=0x0089DDE0_drop-14-11.2	length=0.05	linecode=1/0A	phases=1
New	Line.0x0089DDE0_drop-14-12	Bus1=0x0089DDE0_snd-2.2	Bus2=0x0089DDE0_drop-14-12.2	length=0.05	linecode=1/0A	phases=1
New	Line.0x0089DDE0_drop-14-13	Bus1=0x0089DDE0_snd-1.2	Bus2=0x0089DDE0_drop-14-13.2	length=0.05	linecode=1/0A	phases=1
New	Line.0x0089DDE0_drop-14-14	Bus1=0x0089DDE0_snd-2.2	Bus2=0x0089DDE0_drop-14-14.2	length=0.05	linecode=1/0A	phases=1
New	Line.0x0089DDE0_drop-15-1	Bus1=0x0089DDE0_snd-1.2	Bus2=0x0089DDE0_drop-15-1.2	length=0.05	linecode=1/0A	phases=1
New	Line.0x0089E4C0_snd-1	Bus1=0x0089E4C0_s.2	Bus2=0x0089E4C0_snd-1.2	length=0.03	linecode=1/0A	phases=1
New	Line.0x0089E4C0_snd-2	Bus1=0x0089E4C0_s.2	Bus2=0x0089E4C0_snd-2.2	length=0.03	linecode=1/0A	phases=1
New	Line.0x0089E4C0_drop-16-1	Bus1=0x0089E4C0_snd-1.2	Bus2=0x0089E4C0_drop-16-1.2	length=0.05	linecode=1/0A	phases=1
New	Line.0x0089E4C0_drop-16-2	Bus1=0x0089E4C0_snd-2.2	Bus2=0x0089E4C0_drop-16-2.2	length=0.05	linecode=1/0A	phases=1
New	Line.0x0089E4C0_drop-16-3	Bus1=0x0089E4C0_snd-1.2	Bus2=0x0089E4C0_drop-16-3.2	length=0.05	linecode=1/0A	phases=1
New	Line.0x0089E4C0_drop-16-4	Bus1=0x0089E4C0_snd-2.2	Bus2=0x0089E4C0_drop-16-4.2	length=0.05	linecode=1/0A	phases=1
New	Line.0x0089EBA0_snd-1	Bus1=0x0089EBA0_s.3	Bus2=0x0089EBA0_snd-1.3	length=0.06	linecode=4/0A	phases=1
New	Line.0x0089EBA0_drop-18-1	Bus1=0x0089EBA0_snd-1.3	Bus2=0x0089EBA0_drop-18-1.3	length=0.05	linecode=1/0A	phases=1
New	Line.0x0089EBA0_drop-18-2	Bus1=0x0089EBA0_snd-1.3	Bus2=0x0089EBA0_drop-18-2.3	length=0.05	linecode=1/0A	phases=1
New	Line.0x0089EBA0_snd-2	Bus1=0x0089EBA0_s.3	Bus2=0x0089EBA0_snd-2.3	length=0.15	linecode=4/0A	phases=1
New	Line.0x0089EBA0_drop-18-3	Bus1=0x0089EBA0_snd-2.3	Bus2=0x0089EBA0_drop-18-3.3	length=0.05	linecode=1/0A	phases=1
New	Line.0x0089EBA0_drop-18-4	Bus1=0x0089EBA0_snd-2.3	Bus2=0x0089EBA0_drop-18-4.3	length=0.05	linecode=1/0A	phases=1
New	Line.0x0089EBA0_snd-3	Bus1=0x0089EBA0_s.3	Bus2=0x0089EBA0_snd-3.3	length=0.06	linecode=4/0A	phases=1
New	Line.0x0089EBA0_drop-18-5	Bus1=0x0089EBA0_snd-3.3	Bus2=0x0089EBA0_drop-18-5.3	length=0.05	linecode=1/0A	phases=1
New	Line.0x0089EBA0_drop-18-6	Bus1=0x0089EBA0_snd-3.3	Bus2=0x0089EBA0_drop-18-6.3	length=0.05	linecode=1/0A	phases=1
New	Line.0x0089EBA0_snd-4	Bus1=0x0089EBA0_s.3	Bus2=0x0089EBA0_snd-4.3	length=0.15	linecode=4/0A	phases=1
New	Line.0x0089EBA0_drop-18-7	Bus1=0x0089EBA0_snd-4.3	Bus2=0x0089EBA0_drop-18-7.3	length=0.05	linecode=1/0A	phases=1
New	Line.0x0089EBA0_drop-18-8	Bus1=0x0089EBA0_snd-4.3	Bus2=0x0089EBA0_drop-18-8.3	length=0.05	linecode=1/0A	phases=1
New	Line.0x0089EBA0_snd-5	Bus1=0x0089EBA0_s.3	Bus2=0x0089EBA0_snd-5.3	length=0.15	linecode=4/0A	phases=1
New	Line.0x0089EBA0_drop-18-9	Bus1=0x0089EBA0_snd-5.3	Bus2=0x0089EBA0_drop-18-9.3	length=0.05	linecode=1/0A	phases=1
New	Line.0x0089EBA0_drop-18-10	Bus1=0x0089EBA0_snd-5.3	Bus2=0x0089EBA0_drop-18-10.3	length=0.05	linecode=1/0A	phases=1
New	Line.0x0089EBA0_snd-6	Bus1=0x0089EBA0_s.3	Bus2=0x0089EBA0_snd-6.3	length=0.15	linecode=4/0A	phases=1
New	Line.0x0089EBA0_drop-18-11	Bus1=0x0089EBA0_snd-6.3	Bus2=0x0089EBA0_drop-18-11.3	length=0.05	linecode=1/0A	phases=1
New	Line.0x0089EBA0_drop-18-12	Bus1=0x0089EBA0_snd-6.3	Bus2=0x0089EBA0_drop-18-12.3	length=0.05	linecode=1/0A	phases=1
New	Line.0x0089EBA0_snd-7	Bus1=0x0089EBA0_s.3	Bus2=0x0089EBA0_snd-7.3	length=0.15	linecode=4/0A	phases=1
New	Line.0x0089EBA0_drop-18-13	Bus1=0x0089EBA0_snd-7.3	Bus2=0x0089EBA0_drop-18-13.3	length=0.05	linecode=1/0A	phases=1
New	Line.0x0089EBA0_drop-18-14	Bus1=0x0089EBA0_snd-7.3	Bus2=0x0089EBA0_drop-18-14.3	length=0.05	linecode=1/0A	phases=1
New	Line.0x0089EBA0_snd-8	Bus1=0x0089EBA0_s.3	Bus2=0x0089EBA0_snd-8.3	length=0.15	linecode=4/0A	phases=1
New	Line.0x0089EBA0_drop-19-1	Bus1=0x0089EBA0_snd-8.3	Bus2=0x0089EBA0_drop-19-1.3	length=0.05	linecode=1/0A	phases=1
New	Line.0x0089EBA0_drop-19-2	Bus1=0x0089EBA0_snd-8.3	Bus2=0x0089EBA0_drop-19-2.3	length=0.05	linecode=1/0A	phases=1
New	Line.0x0089EBA0_snd-9	Bus1=0x0089EBA0_s.3	Bus2=0x0089EBA0_snd-9.3	length=0.15	linecode=4/0A	phases=1
New	Line.0x0089EBA0_drop-20-1	Bus1=0x0089EBA0_snd-9.3	Bus2=0x0089EBA0_drop-20-1.3	length=0.05	linecode=1/0A	phases=1
New	Line.0x0089F280_snd-1	Bus1=0x0089F280_s.3	Bus2=0x0089F280_snd-1.3	length=0.06	linecode=4/0A	phases=1
New	Line.0x0089F280_drop-21-1	Bus1=0x0089F280_snd-1.3	Bus2=0x0089F280_drop-21-1.3	length=0.05	linecode=1/0A	phases=1
New	Line.0x0089F280_drop-21-2	Bus1=0x0089F280_snd-1.3	Bus2=0x0089F280_drop-21-2.3	length=0.05	linecode=1/0A	phases=1
New	Line.0x0089F280_snd-2	Bus1=0x0089F280_s.3	Bus2=0x0089F280_snd-2.3	length=0.15	linecode=4/0A	phases=1
New	Line.0x0089F280_drop-21-3	Bus1=0x0089F280_snd-2.3	Bus2=0x0089F280_drop-21-3.3	length=0.05	linecode=1/0A	phases=1
New	Line.0x0089F280_drop-21-4	Bus1=0x0089F280_snd-2.3	Bus2=0x0089F280_drop-21-4.3	length=0.05	linecode=1/0A	phases=1
New	Line.0x0089F280_snd-3	Bus1=0x0089F280_s.3	Bus2=0x0089F280_snd-3.3	length=0.06	linecode=4/0A	phases=1
New	Line.0x0089F280_drop-21-5	Bus1=0x0089F280_snd-3.3	Bus2=0x0089F280_drop-21-5.3	length=0.05	linecode=1/0A	phases=1
New	Line.0x0089F280_drop-21-6	Bus1=0x0089F280_snd-3.3	Bus2=0x0089F280_drop-21-6.3	length=0.05	linecode=1/0A	phases=1
New	Line.0x0089F280_snd-4	Bus1=0x0089F280_s.3	Bus2=0x0089F280_snd-4.3	length=0.15	linecode=4/0A	phases=1
New	Line.0x0089F280_drop-21-7	Bus1=0x0089F280_snd-4.3	Bus2=0x0089F280_drop-21-7.3	length=0.05	linecode=1/0A	phases=1
New	Line.0x0089F280_drop-21-8	Bus1=0x0089F280_snd-4.3	Bus2=0x0089F280_drop-21-8.3	length=0.05	linecode=1/0A	phases=1
New	Line.0x0089F280_snd-5	Bus1=0x0089F280_s.3	Bus2=0x0089F280_snd-5.3	length=0.15	linecode=4/0A	phases=1
New	Line.0x0089F280_drop-21-9	Bus1=0x0089F280_snd-5.3	Bus2=0x0089F280_drop-21-9.3	length=0.05	linecode=1/0A	phases=1
New	Line.0x0089F280_drop-21-10	Bus1=0x0089F280_snd-5.3	Bus2=0x0089F280_drop-21-10.3	length=0.05	linecode=1/0A	phases=1
New	Line.0x0089F280_snd-6	Bus1=0x0089F280_s.3	Bus2=0x0089F280_snd-6.3	length=0.15	linecode=4/0A	phases=1
New	Line.0x0089F280_drop-21-11	Bus1=0x0089F280_snd-6.3	Bus2=0x0089F280_drop-21-11.3	length=0.05	linecode=1/0A	phases=1
New	Line.0x0089F280_drop-22-1	Bus1=0x0089F280_snd-6.3	Bus2=0x0089F280_drop-22-1.3	length=0.05	linecode=1/0A	phases=1
New	Line.0x0089F280_snd-7	Bus1=0x0089F280_s.3	Bus2=0x0089F280_snd-7.3	length=0.15	linecode=4/0A	phases=1
New	Line.0x0089F280_drop-22-2	Bus1=0x0089F280_snd-7.3	Bus2=0x0089F280_drop-22-2.3	length=0.05	linecode=1/0A	phases=1
New	Line.0x0089F280_drop-22-3	Bus1=0x0089F280_snd-7.3	Bus2=0x0089F280_drop-22-3.3	length=0.05	linecode=1/0A	phases=1
New	Line.0x0089F280_snd-8	Bus1=0x0089F280_s.3	Bus2=0x0089F280_snd-8.3	length=0.15	linecode=4/0A	phases=1
New	Line.0x0089F280_drop-23-1	Bus1=0x0089F280_snd-8.3	Bus2=0x0089F280_drop-23-1.3	length=0.05	linecode=1/0A	phases=1
New	Line.0x008B8108_drop-24-1	Bus1=0x008B8108_s.1	Bus2=0x008B8108_drop-24-1.1	length=0.035	linecode=1/0A	phases=1
New	Line.0x008B8D10_snd-1	Bus1=0x008B8D10_s.2	Bus2=0x008B8D10_snd-1.2	length=0.06	linecode=4/0A	phases=1
New	Line.0x008B8D10_drop-25-1	Bus1=0x008B8D10_snd-1.2	Bus2=0x008B8D10_drop-25-1.2	length=0.05	linecode=1/0A	phases=1
New	Line.0x008B8D10_drop-25-2	Bus1=0x008B8D10_snd-1.2	Bus2=0x008B8D10_drop-25-2.2	length=0.05	linecode=1/0A	phases=1
New	Line.0x008B8D10_snd-2	Bus1=0x008B8D10_s.2	Bus2=0x008B8D10_snd-2.2	length=0.15	linecode=4/0A	phases=1
New	Line.0x008B8D10_drop-25-3	Bus1=0x008B8D10_snd-2.2	Bus2=0x008B8D10_drop-25-3.2	length=0.05	linecode=1/0A	phases=1
New	Line.0x008B8D10_drop-25-4	Bus1=0x008B8D10_snd-2.2	Bus2=0x008B8D10_drop-25-4.2	length=0.05	linecode=1/0A	phases=1
New	Line.0x008B8D10_snd-3	Bus1=0x008B8D10_s.2	Bus2=0x008B8D10_snd-3.2	length=0.06	linecode=4/0A	phases=1
New	Line.0x008B8D10_drop-25-5	Bus1=0x008B8D10_snd-3.2	Bus2=0x008B8D10_drop-25-5.2	length=0.05	linecode=1/0A	phases=1
New	Line.0x008B8D10_drop-25-6	Bus1=0x008B8D10_snd-3.2	Bus2=0x008B8D10_drop-25-6.2	length=0.05	linecode=1/0A	phases=1
New	Line.0x008B8D10_snd-4	Bus1=0x008B8D10_s.2	Bus2=0x008B8D10_snd-4.2	length=0.15	linecode=4/0A	phases=1
New	Line.0x008B8D10_drop-25-7	Bus1=0x008B8D10_snd-4.2	Bus2=0x008B8D10_drop-25-7.2	length=0.05	linecode=1/0A	phases=1
New	Line.0x008B8D10_drop-26-1	Bus1=0x008B8D10_snd-4.2	Bus2=0x008B8D10_drop-26-1.2	length=0.05	linecode=1/0A	phases=1
New	Line.0x008B8D10_snd-5	Bus1=0x008B8D10_s.2	Bus2=0x008B8D10_snd-5.2	length=0.15	linecode=4/0A	phases=1
New	Line.0x008B8D10_drop-27-1	Bus1=0x008B8D10_snd-5.2	Bus2=0x008B8D10_drop-27-1.2	length=0.05	linecode=1/0A	phases=1
New	Line.0x008C2490_snd-1	Bus1=0x008C2490_s.2	Bus2=0x008C2490_snd-1.2	length=0.03	linecode=1/0A	phases=1
New	Line.0x008C2490_snd-2	Bus1=0x008C2490_s.2	Bus2=0x008C2490_snd-2.2	length=0.03	linecode=1/0A	phases=1
New	Line.0x008C2490_drop-28-1	Bus1=0x008C2490_snd-1.2	Bus2=0x008C2490_drop-28-1.2	length=0.05	linecode=1/0A	phases=1
New	Line.0x008C2490_drop-28-2	Bus1=0x008C2490_snd-2.2	Bus2=0x008C2490_drop-28-2.2	length=0.05	linecode=1/0A	phases=1
New	Line.0x008C2490_drop-28-3	Bus1=0x008C2490_snd-1.2	Bus2=0x008C2490_drop-28-3.2	length=0.05	linecode=1/0A	phases=1
New	Line.0x008C2490_drop-28-4	Bus1=0x008C2490_snd-2.2	Bus2=0x008C2490_drop-28-4.2	length=0.05	linecode=1/0A	phases=1
New	Line.0x008C2490_drop-28-5	Bus1=0x008C2490_snd-1.2	Bus2=0x008C2490_drop-28-5.2	length=0.05	linecode=1/0A	phases=1
New	Line.0x008C2490_drop-28-6	Bus1=0x008C2490_snd-2.2	Bus2=0x008C2490_drop-28-6.2	length=0.05	linecode=1/0A	phases=1
New	Line.0x008C2490_drop-28-7	Bus1=0x008C2490_snd-1.2	Bus2=0x008C2490_drop-28-7.2	length=0.05	linecode=1/0A	phases=1
New	Line.0x008C2490_drop-28-8	Bus1=0x008C2490_snd-2.2	Bus2=0x008C2490_drop-28-8.2	length=0.05	linecode=1/0A	phases=1
New	Line.0x008C2490_drop-28-9	Bus1=0x008C2490_snd-1.2	Bus2=0x008C2490_drop-28-9.2	length=0.05	linecode=1/0A	phases=1
New	Line.0x008C2490_drop-28-10	Bus1=0x008C2490_snd-2.2	Bus2=0x008C2490_drop-28-10.2	length=0.05	linecode=1/0A	phases=1
New	Line.0x008C2490_drop-28-11	Bus1=0x008C2490_snd-1.2	Bus2=0x008C2490_drop-28-11.2	length=0.05	linecode=1/0A	phases=1
New	Line.0x008C2490_drop-29-1	Bus1=0x008C2490_snd-2.2	Bus2=0x008C2490_drop-29-1.2	length=0.05	linecode=1/0A	phases=1
New	Line.0x008C2490_drop-29-2	Bus1=0x008C2490_snd-1.2	Bus2=0x008C2490_drop-29-2.2	length=0.05	linecode=1/0A	phases=1
New	Line.0x008C2648_snd-1	Bus1=0x008C2648_s.2	Bus2=0x008C2648_snd-1.2	length=0.03	linecode=1/0A	phases=1
New	Line.0x008C2648_snd-2	Bus1=0x008C2648_s.2	Bus2=0x008C2648_snd-2.2	length=0.03	linecode=1/0A	phases=1
New	Line.0x008C2648_drop-30-1	Bus1=0x008C2648_snd-1.2	Bus2=0x008C2648_drop-30-1.2	length=0.05	linecode=1/0A	phases=1
New	Line.0x008C2648_drop-30-2	Bus1=0x008C2648_snd-2.2	Bus2=0x008C2648_drop-30-2.2	length=0.05	linecode=1/0A	phases=1
New	Line.0x008C2648_drop-30-3	Bus1=0x008C2648_snd-1.2	Bus2=0x008C2648_drop-30-3.2	length=0.05	linecode=1/0A	phases=1
New	Line.0x008C2648_drop-30-4	Bus1=0x008C2648_snd-2.2	Bus2=0x008C2648_drop-30-4.2	length=0.05	linecode=1/0A	phases=1
New	Line.0x008C2648_drop-30-5	Bus1=0x008C2648_snd-1.2	Bus2=0x008C2648_drop-30-5.2	length=0.05	linecode=1/0A	phases=1
New	Line.0x008C2648_drop-30-6	Bus1=0x008C2648_snd-2.2	Bus2=0x008C2648_drop-30-6.2	length=0.05	linecode=1/0A	phases=1
New	Line.0x008C2648_drop-30-7	Bus1=0x008C2648_snd-1.2	Bus2=0x008C2648_drop-30-7.2	length=0.05	linecode=1/0A	phases=1
New	Line.0x008C2648_drop-30-8	Bus1=0x008C2648_snd-2.2	Bus2=0x008C2648_drop-30-8.2	length=0.05	linecode=1/0A	phases=1
New	Line.0x008C2648_drop-30-9	Bus1=0x008C2648_snd-1.2	Bus2=0x008C2648_drop-30-9.2	length=0.05	linecode=1/0A	phases=1
New	Line.0x008C2648_drop-31-1	Bus1=0x008C2648_snd-2.2	Bus2=0x008C2648_drop-31-1.2	length=0.05	linecode=1/0A	phases=1
New	Line.0x008C2B70_snd-1	Bus1=0x008C2B70_s.2	Bus2=0x008C2B70_snd-1.2	length=0.03	linecode=1/0A	phases=1
New	Line.0x008C2B70_snd-2	Bus1=0x008C2B70_s.2	Bus2=0x008C2B70_snd-2.2	length=0.03	linecode=1/0A	phases=1
New	Line.0x008C2B70_drop-32-1	Bus1=0x008C2B70_snd-1.2	Bus2=0x008C2B70_drop-32-1.2	length=0.05	linecode=1/0A	phases=1
New	Line.0x008C2B70_drop-32-2	Bus1=0x008C2B70_snd-2.2	Bus2=0x008C2B70_drop-32-2.2	length=0.05	linecode=1/0A	phases=1
New	Line.0x008C2B70_drop-32-3	Bus1=0x008C2B70_snd-1.2	Bus2=0x008C2B70_drop-32-3.2	length=0.05	linecode=1/0A	phases=1
New	Line.0x008C2B70_drop-32-4	Bus1=0x008C2B70_snd-2.2	Bus2=0x008C2B70_drop-32-4.2	length=0.05	linecode=1/0A	phases=1
New	Line.0x008C2B70_drop-32-5	Bus1=0x008C2B70_snd-1.2	Bus2=0x008C2B70_drop-32-5.2	length=0.05	linecode=1/0A	phases=1
...

New	Line.0x0089E678_drop-17-1-1	Bus1=0x0089E678_s	Bus2=0x0089E678_drop-17-1	length=0.074	linecode=750A3	phases=3
!New	Line.0x0089E678_drop-17-1-2	Bus1=0x0089E678_s	Bus2=0x0089E678_drop-17-1	length=0.074	linecode=750A3	phases=3
!New	Line.0x0089E678_drop-17-1-3	Bus1=0x0089E678_s	Bus2=0x0089E678_drop-17-1	length=0.074	linecode=750A3	phases=3
New	Line.0x008D3070_drop-118-1-1	Bus1=0x008D3070_s	Bus2=0x008D3070_drop-118-1	length=0.032	linecode=750A3	phases=3
!New	Line.0x008D3070_drop-118-1-2	Bus1=0x008D3070_s	Bus2=0x008D3070_drop-118-1	length=0.032	linecode=750A3	phases=3
!New	Line.0x008D3070_drop-118-1-3	Bus1=0x008D3070_s	Bus2=0x008D3070_drop-118-1	length=0.032	linecode=750A3	phases=3
New	Line.0x008D3070_drop-119-1-1	Bus1=0x008D3070_s	Bus2=0x008D3070_drop-119-1	length=0.032	linecode=750A3	phases=3
!New	Line.0x008D3070_drop-119-1-2	Bus1=0x008D3070_s	Bus2=0x008D3070_drop-119-1	length=0.032	linecode=750A3	phases=3
!New	Line.0x008D3070_drop-119-1-3	Bus1=0x008D3070_s	Bus2=0x008D3070_drop-119-1	length=0.032	linecode=750A3	phases=3
New	Line.0x008E6FB0_drop-237-1	Bus1=0x008E6FB0_s	Bus2=0x008E6FB0_drop-237-1	length=0.135	linecode=1/0A3	phases=3
New	Line.0x008E6FB0_drop-237-2	Bus1=0x008E6FB0_s	Bus2=0x008E6FB0_drop-237-2	length=0.135	linecode=1/0A3	phases=3
New	Line.0x008E7A00_drop-244-1-1	Bus1=0x008E7A00_s	Bus2=0x008E7A00_drop-244-1	length=0.064	geometry=340A_QX3	phases=3
!New	Line.0x008E7A00_drop-244-1-2	Bus1=0x008E7A00_s	Bus2=0x008E7A00_drop-244-1	length=0.064	geometry=340A_QX3	phases=3
