ptech18/ieee_tn/m1/Loads_Only_z.dss
New	Load.Aggregated	Phases=3	Bus1=AggLD	kV=12.47        kW=9723.2	yearly=Aggregated model=4	numcust=1 CVRwatt=0.7	CVRvars=3	Class=1	pf=1
New	Load.0x00899528_1_1	Phases=1	Bus1=0x00899528_drop-1-1.3	kW=4.6768639	kvar=2.1515571	yearly=23	kV=0.24	model=4	numcust=1 CVRwatt=0.7	CVRvars=3	Class=1	pf=0.92
New	Load.0x00899528_1_2	Phases=1	Bus1=0x00899528_drop-1-2.3	kW=4.6768639	kvar=2.1515571	yearly=23	kV=0.24	model=4	numcust=1 CVRwatt=0.7	CVRvars=3	Class=1	pf=0.92
New	Load.0x00899528_1_3	Phases=1	Bus1=0x00899528_drop-1-3.3	kW=4.6768639	kvar=2.1515571	yearly=23	kV=0.24	model=4	numcust=1 CVRwatt=0.7	CVRvars=3	Class=1	pf=0.92
New	Load.0x00899528_1_4	Phases=1	Bus1=0x00899528_drop-1-4.3	kW=4.6768639	kvar=2.1515571	yearly=23	kV=0.24	model=4	numcust=1 CVRwatt=0.7	CVRvars=3	Class=1	pf=0.92
New	Load.0x00899528_1_5	Phases=1	Bus1=0x00899528_drop-1-5.3	kW=4.6768639	kvar=2.1515571	yearly=23	kV=0.24	model=4	numcust=1 CVRwatt=0.7	CVRvars=3	Class=1	pf=0.92
New	Load.0x00899528_1_6	Phases=1	Bus1=0x00899528_drop-1-6.3	kW=4.6768639	kvar=2.1515571	yearly=23	kV=0.24	model=4	numcust=1 CVRwatt=0.7	CVRvars=3	Class=1	pf=0.92
New	Load.0x00899528_1_7	Phases=1	Bus1=0x00899528_drop-1-7.3	kW=4.6768639	kvar=2.1515571	yearly=23	kV=0.24	model=4	numcust=1 CVRwatt=0.7	CVRvars=3	Class=1	pf=0.92
New	Load.0x00899528_1_8	Phases=1	Bus1=0x00899528_drop-1-8.3	kW=4.6768639	kvar=2.1515571	yearly=23	kV=0.24	model=4	numcust=1 CVRwatt=0.7	CVRvars=3	Class=1	pf=0.92
New	Load.0x00899528_1_9	Phases=1	Bus1=0x00899528_drop-1-9.3	kW=4.6768639	kvar=2.1515571	yearly=23	kV=0.24	model=4	numcust=1 CVRwatt=0.7	CVRvars=3	Class=1	pf=0.92
New	Load.0x00899528_1_10	Phases=1	Bus1=0x00899528_drop-1-10.3	kW=4.6768639	kvar=2.1515571	yearly=23	kV=0.24	model=4	numcust=1 CVRwatt=0.7	CVRvars=3	Class=1	pf=0.92
New	Load.0x00899528_2_1	Phases=1	Bus1=0x00899528_drop-2-1.3	kW=4.533787	kvar=1.998143	yearly=26	kV=0.24	model=4	numcust=1 CVRwatt=0.7	CVRvars=3	Class=1	pf=0.92
New	Load.0x00899528_2_2	Phases=1	Bus1=0x00899528_drop-2-2.3	kW=4.533787	kvar=1.998143	yearly=26	kV=0.24	model=4	numcust=1 CVRwatt=0.7	CVRvars=3	Class=1	pf=0.92
New	Load.0x00899528_2_3	Phases=1	Bus1=0x00899528_drop-2-3.3	kW=4.533787	kvar=1.998143	yearly=26	kV=0.24	model=4	numcust=1 CVRwatt=0.7	CVRvars=3	Class=1	pf=0.92
New	Load.0x008996E0_3_1	Phases=1	Bus1=0x008996E0_drop-3-1.1	kW=3.7451984	kvar=1.7269884	yearly=23	kV=0.24	model=4	numcust=1 CVRwatt=0.7	CVRvars=3	Class=1	pf=0.92
New	Load.0x008996E0_3_2	Phases=1	Bus1=0x008996E0_drop-3-2.1	kW=3.7451984	kvar=1.7269884	yearly=23	kV=0.24	model=4	numcust=1 CVRwatt=0.7	CVRvars=3	Class=1	pf=0.92
New	Load.0x008996E0_3_3	Phases=1	Bus1=0x008996E0_drop-3-3.1	kW=3.7451984	kvar=1.7269884	yearly=23	kV=0.24	model=4	numcust=1 CVRwatt=0.7	CVRvars=3	Class=1	pf=0.92
New	Load.0x008996E0_3_4	Phases=1	Bus1=0x008996E0_drop-3-4.1	kW=3.7451984	kvar=1.7269884	yearly=23	kV=0.24	model=4	numcust=1 CVRwatt=0.7	CVRvars=3	Class=1	pf=0.92
New	Load.0x008996E0_3_5	Phases=1	Bus1=0x008996E0_drop-3-5.1	kW=3.7451984	kvar=1.7269884	yearly=23	kV=0.24	model=4	numcust=1 CVRwatt=0.7	CVRvars=3	Class=1	pf=0.92
New	Load.0x008996E0_4_1	Phases=1	Bus1=0x008996E0_drop-4-1.1	kW=2.647004	kvar=1.152529	yearly=26	kV=0.24	model=4	numcust=1 CVRwatt=0.7	CVRvars=3	Class=1	pf=0.92
New	Load.0x008996E0_4_2	Phases=1	Bus1=0x008996E0_drop-4-2.1	kW=2.647004	kvar=1.152529	yearly=26	kV=0.24	model=4	numcust=1 CVRwatt=0.7	CVRvars=3	Class=1	pf=0.92
New	Load.0x0089BF70_5_1	Phases=1	Bus1=0x0089BF70_drop-5-1.2	kW=2.7537377	kvar=1.2760308	yearly=23	kV=0.24	model=4	numcust=1 CVRwatt=0.7	CVRvars=3	Class=1	pf=0.92
New	Load.0x0089BF70_5_2	Phases=1	Bus1=0x0089BF70_drop-5-2.2	kW=2.7537377	kvar=1.2760308	yearly=23	kV=0.24	model=4	numcust=1 CVRwatt=0.7	CVRvars=3	Class=1	pf=0.92
New	Load.0x0089BF70_5_3	Phases=1	Bus1=0x0089BF70_drop-5-3.2	kW=2.7537377	kvar=1.2760308	yearly=23	kV=0.24	model=4	numcust=1 CVRwatt=0.7	CVRvars=3	Class=1	pf=0.92
New	Load.0x0089BF70_5_4	Phases=1	Bus1=0x0089BF70_drop-5-4.2	kW=2.7537377	kvar=1.2760308	yearly=23	kV=0.24	model=4	numcust=1 CVRwatt=0.7	CVRvars=3	Class=1	pf=0.92
New	Load.0x0089BF70_5_5	Phases=1	Bus1=0x0089BF70_drop-5-5.2	kW=2.7537377	kvar=1.2760308	yearly=23	kV=0.24	model=4	numcust=1 CVRwatt=0.7	CVRvars=3	Class=1	pf=0.92
New	Load.0x0089BF70_5_6	Phases=1	Bus1=0x0089BF70_drop-5-6.2	kW=2.7537377	kvar=1.2760308	yearly=23	kV=0.24	model=4	numcust=1 CVRwatt=0.7	CVRvars=3	Class=1	pf=0.92
New	Load.0x0089BF70_5_7	Phases=1	Bus1=0x0089BF70_drop-5-7.2	kW=2.7537377	kvar=1.2760308	yearly=23	kV=0.24	model=4	numcust=1 CVRwatt=0.7	CVRvars=3	Class=1	pf=0.92
New	Load.0x0089BF70_5_8	Phases=1	Bus1=0x0089BF70_drop-5-8.2	kW=2.7537377	kvar=1.2760308	yearly=23	kV=0.24	model=4	numcust=1 CVRwatt=0.7	CVRvars=3	Class=1	pf=0.92
New	Load.0x0089BF70_5_9	Phases=1	Bus1=0x0089BF70_drop-5-9.2	kW=2.7537377	kvar=1.2760308	yearly=23	kV=0.24	model=4	numcust=1 CVRwatt=0.7	CVRvars=3	Class=1	pf=0.92
New	Load.0x0089BF70_5_10	Phases=1	Bus1=0x0089BF70_drop-5-10.2	kW=2.7537377	kvar=1.2760308	yearly=23	kV=0.24	model=4	numcust=1 CVRwatt=0.7	CVRvars=3	Class=1	pf=0.92
New	Load.0x0089BF70_6_1	Phases=1	Bus1=0x0089BF70_drop-6-1.2	kW=5.772623	kvar=2.419692	yearly=26	kV=0.24	model=4	numcust=1 CVRwatt=0.7	CVRvars=3	Class=1	pf=0.92
New	Load.0x0089C260_7_1	Phases=1	Bus1=0x0089C260_drop-7-1.3	kW=3.01090909090909	kvar=1.37181818181818	yearly=23	kV=0.24	model=4	numcust=1 CVRwatt=0.7	CVRvars=3	Class=1	pf=0.92
New	Load.0x0089C260_7_2	Phases=1	Bus1=0x0089C260_drop-7-2.3	kW=3.01090909090909	kvar=1.37181818181818	yearly=23	kV=0.24	model=4	numcust=1 CVRwatt=0.7	CVRvars=3	Class=1	pf=0.92
New	Load.0x0089C260_7_3	Phases=1	Bus1=0x0089C260_drop-7-3.3	kW=3.01090909090909	kvar=1.37181818181818	yearly=23	kV=0.24	model=4	numcust=1 CVRwatt=0.7	CVRvars=3	Class=1	pf=0.92
New	Load.0x0089C260_7_4	Phases=1	Bus1=0x0089C260_drop-7-4.3	kW=3.01090909090909	kvar=1.37181818181818	yearly=23	kV=0.24	model=4	numcust=1 CVRwatt=0.7	CVRvars=3	Class=1	pf=0.92
New	Load.0x0089C260_7_5	Phases=1	Bus1=0x0089C260_drop-7-5.3	kW=3.01090909090909	kvar=1.37181818181818	yearly=23	kV=0.24	model=4	numcust=1 CVRwatt=0.7	CVRvars=3	Class=1	pf=0.92
New	Load.0x0089C260_7_6	Phases=1	Bus1=0x0089C260_drop-7-6.3	kW=3.01090909090909	kvar=1.37181818181818	yearly=23	kV=0.24	model=4	numcust=1 CVRwatt=0.7	CVRvars=3	Class=1	pf=0.92
New	Load.0x0089C260_7_7	Phases=1	Bus1=0x0089C260_drop-7-7.3	kW=3.01090909090909	kvar=1.37181818181818	yearly=23	kV=0.24	model=4	numcust=1 CVRwatt=0.7	CVRvars=3	Class=1	pf=0.92
New	Load.0x0089C260_7_8	Phases=1	Bus1=0x0089C260_drop-7-8.3	kW=3.01090909090909	kvar=1.37181818181818	yearly=23	kV=0.24	model=4	numcust=1 CVRwatt=0.7	CVRvars=3	Class=1	pf=0.92
New	Load.0x0089C260_7_9	Phases=1	Bus1=0x0089C260_drop-7-9.3	kW=3.01090909090909	kvar=1.37181818181818	yearly=23	kV=0.24	model=4	numcust=1 CVRwatt=0.7	CVRvars=3	Class=1	pf=0.92
New	Load.0x0089C260_7_10	Phases=1	Bus1=0x0089C260_drop-7-10.3	kW=3.01090909090909	kvar=1.37181818181818	yearly=23	kV=0.24	model=4	numcust=1 CVRwatt=0.7	CVRvars=3	Class=1	pf=0.92
New	Load.0x0089C260_7_11	Phases=1	Bus1=0x0089C260_drop-7-11.3	kW=3.01090909090909	kvar=1.37181818181818	yearly=23	kV=0.24	model=4	numcust=1 CVRwatt=0.7	CVRvars=3	Class=1	pf=0.92
New	Load.0x0089C940_8_1	Phases=1	Bus1=0x0089C940_drop-8-1.3	kW=3.7134955	kvar=1.66540175	yearly=23	kV=0.24	model=4	numcust=1 CVRwatt=0.7	CVRvars=3	Class=1	pf=0.92
New	Load.0x0089C940_8_2	Phases=1	Bus1=0x0089C940_drop-8-2.3	kW=3.7134955	kvar=1.66540175	yearly=23	kV=0.24	model=4	numcust=1 CVRwatt=0.7	CVRvars=3	Class=1	pf=0.92
New	Load.0x0089C940_8_3	Phases=1	Bus1=0x0089C940_drop-8-3.3	kW=3.7134955	kvar=1.66540175	yearly=23	kV=0.24	model=4	numcust=1 CVRwatt=0.7	CVRvars=3	Class=1	pf=0.92
New	Load.0x0089C940_8_4	Phases=1	Bus1=0x0089C940_drop-8-4.3	kW=3.7134955	kvar=1.66540175	yearly=23	kV=0.24	model=4	numcust=1 CVRwatt=0.7	CVRvars=3	Class=1	pf=0.92
New	Load.0x0089C940_8_5	Phases=1	Bus1=0x0089C940_drop-8-5.3	kW=3.7134955	kvar=1.66540175	yearly=23	kV=0.24	model=4	numcust=1 CVRwatt=0.7	CVRvars=3	Class=1	pf=0.92
New	Load.0x0089C940_8_6	Phases=1	Bus1=0x0089C940_drop-8-6.3	kW=3.7134955	kvar=1.66540175	yearly=23	kV=0.24	model=4	numcust=1 CVRwatt=0.7	CVRvars=3	Class=1	pf=0.92
New	Load.0x0089C940_8_7	Phases=1	Bus1=0x0089C940_drop-8-7.3	kW=3.7134955	kvar=1.66540175	yearly=23	kV=0.24	model=4	numcust=1 CVRwatt=0.7	CVRvars=3	Class=1	pf=0.92
New	Load.0x0089C940_8_8	Phases=1	Bus1=0x0089C940_drop-8-8.3	kW=3.7134955	kvar=1.66540175	yearly=23	kV=0.24	model=4	numcust=1 CVRwatt=0.7	CVRvars=3	Class=1	pf=0.92
New	Load.0x0089C940_9_1	Phases=1	Bus1=0x0089C940_drop-9-1.3	kW=2.251018	kvar=1.133393	yearly=26	kV=0.24	model=4	numcust=1 CVRwatt=0.7	CVRvars=3	Class=1	pf=0.92
New	Load.0x0089C940_9_2	Phases=1	Bus1=0x0089C940_drop-9-2.3	kW=2.251018	kvar=1.133393	yearly=26	kV=0.24	model=4	numcust=1 CVRwatt=0.7	CVRvars=3	Class=1	pf=0.92
New	Load.0x0089D020_10_1	Phases=1	Bus1=0x0089D020_drop-10-1.2	kW=3.448304	kvar=1.686246	yearly=23	kV=0.24	model=4	numcust=1 CVRwatt=0.7	CVRvars=3	Class=1	pf=0.92
New	Load.0x0089D020_10_2	Phases=1	Bus1=0x0089D020_drop-10-2.2	kW=3.448304	kvar=1.686246	yearly=23	kV=0.24	model=4	numcust=1 CVRwatt=0.7	CVRvars=3	Class=1	pf=0.92
New	Load.0x0089D020_10_3	Phases=1	Bus1=0x0089D020_drop-10-3.2	kW=3.448304	kvar=1.686246	yearly=23	kV=0.24	model=4	numcust=1 CVRwatt=0.7	CVRvars=3	Class=1	pf=0.92
New	Load.0x0089D020_11_1	Phases=1	Bus1=0x0089D020_drop-11-1.2	kW=4.24688	kvar=2.423342	yearly=26	kV=0.24	model=4	numcust=1 CVRwatt=0.7	CVRvars=3	Class=1	pf=0.92
New	Load.0x0089D020_12_1	Phases=1	Bus1=0x0089D020_drop-12-1.2	kW=2.864104	kvar=0.88896	yearly=36	kV=0.24	model=4	numcust=1 CVRwatt=0.7	CVRvars=3	Class=1	pf=0.92
New	Load.0x0089D020_12_2	Phases=1	Bus1=0x0089D020_drop-12-2.2	kW=2.864104	kvar=0.88896	yearly=36	kV=0.24	model=4	numcust=1 CVRwatt=0.7	CVRvars=3	Class=1	pf=0.92
New	Load.0x0089D700_13_1	Phases=1	Bus1=0x0089D700_drop-13-1.2	kW=5.5325	kvar=2.52	yearly=23	kV=0.24	model=4	numcust=1 CVRwatt=0.7	CVRvars=3	Class=1	pf=0.92
New	Load.0x0089D700_13_2	Phases=1	Bus1=0x0089D700_drop-13-2.2	kW=5.5325	kvar=2.52	yearly=23	kV=0.24	model=4	numcust=1 CVRwatt=0.7	CVRvars=3	Class=1	pf=0.92
New	Load.0x0089D700_13_3	Phases=1	Bus1=0x0089D700_drop-13-3.2	kW=5.5325	kvar=2.52	yearly=23	kV=0.24	model=4	numcust=1 CVRwatt=0.7	CVRvars=3	Class=1	pf=0.92
New	Load.0x0089D700_13_4	Phases=1	Bus1=0x0089D700_drop-13-4.2	kW=5.5325	kvar=2.52	yearly=23	kV=0.24	model=4	numcust=1 CVRwatt=0.7	CVRvars=3	Class=1	pf=0.92
New	Load.0x0089DDE0_14_1	Phases=1	Bus1=0x0089DDE0_drop-14-1.2	kW=2.81744014285714	kvar=1.13229957142857	yearly=23	kV=0.24	model=4	numcust=1 CVRwatt=0.7	CVRvars=3	Class=1	pf=0.92
New	Load.0x0089DDE0_14_2	Phases=1	Bus1=0x0089DDE0_drop-14-2.2	kW=2.81744014285714	kvar=1.13229957142857	yearly=23	kV=0.24	model=4	numcust=1 CVRwatt=0.7	CVRvars=3	Class=1	pf=0.92
New	Load.0x0089DDE0_14_3	Phases=1	Bus1=0x0089DDE0_drop-14-3.2	kW=2.81744014285714	kvar=1.13229957142857	yearly=23	kV=0.24	model=4	numcust=1 CVRwatt=0.7	CVRvars=3	Class=1	pf=0.92
New	Load.0x0089DDE0_14_4	Phases=1	Bus1=0x0089DDE0_drop-14-4.2	kW=2.81744014285714	kvar=1.13229957142857	yearly=23	kV=0.24	model=4	numcust=1 CVRwatt=0.7	CVRvars=3	Class=1	pf=0.92
New	Load.0x0089DDE0_14_5	Phases=1	Bus1=0x0089DDE0_drop-14-5.2	kW=2.81744014285714	kvar=1.13229957142857	yearly=23	kV=0.24	model=4	numcust=1 CVRwatt=0.7	CVRvars=3	Class=1	pf=0.92
New	Load.0x0089DDE0_14_6	Phases=1	Bus1=0x0089DDE0_drop-14-6.2	kW=2.81744014285714	kvar=1.13229957142857	yearly=23	kV=0.24	model=4	numcust=1 CVRwatt=0.7	CVRvars=3	Class=1	pf=0.92
New	Load.0x0089DDE0_14_7	Phases=1	Bus1=0x0089DDE0_drop-14-7.2	kW=2.81744014285714	kvar=1.13229957142857	yearly=23	kV=0.24	model=4	numcust=1 CVRwatt=0.7	CVRvars=3	Class=1	pf=0.92
New	Load.0x0089DDE0_14_8	Phases=1	Bus1=0x0089DDE0_drop-14-8.2	kW=2.81744014285714	kvar=1.13229957142857	yearly=23	kV=0.24	model=4	numcust=1 CVRwatt=0.7	CVRvars=3	Class=1	pf=0.92
New	Load.0x0089DDE0_14_9	Phases=1	Bus1=0x0089DDE0_drop-14-9.2	kW=2.81744014285714	kvar=1.13229957142857	yearly=23	kV=0.24	model=4	numcust=1 CVRwatt=0.7	CVRvars=3	Class=1	pf=0.92
New	Load.0x0089DDE0_14_10	Phases=1	Bus1=0x0089DDE0_drop-14-10.2	kW=2.81744014285714	kvar=1.13229957142857	yearly=23	kV=0.24	model=4	numcust=1 CVRwatt=0.7	CVRvars=3	Class=1	pf=0.92
New	Load.0x0089DDE0_14_11	Phases=1	Bus1=0x0089DDE0_drop-14-11.2	kW=2.81744014285714	kvar=1.13229957142857	yearly=23	kV=0.24	model=4	numcust=1 CVRwatt=0.7	CVRvars=3	Class=1	pf=0.92
New	Load.0x0089DDE0_14_12	Phases=1	Bus1=0x0089DDE0_drop-14-12.2	kW=2.81744014285714	kvar=1.13229957142857	yearly=23	kV=0.24	model=4	numcust=1 CVRwatt=0.7	CVRvars=3	Class=1	pf=0.92
New	Load.0x0089DDE0_14_13	Phases=1	Bus1=0x0089DDE0_drop-14-13.2	kW=2.81744014285714	kvar=1.13229957142857	yearly=23	kV=0.24	model=4	numcust=1 CVRwatt=0.7	CVRvars=3	Class=1	pf=0.92
New	Load.0x0089DDE0_14_14	Phases=1	Bus1=0x0089DDE0_drop-14-14.2	kW=2.81744014285714	kvar=1.13229957142857	yearly=23	kV=0.24	model=4	numcust=1 CVRwatt=0.7	CVRvars=3	Class=1	pf=0.92
New	Load.0x0089DDE0_15_1	Phases=1	Bus1=0x0089DDE0_drop-15-1.2	kW=4.765838	kvar=4.287806	yearly=36	kV=0.24	model=4	numcust=1 CVRwatt=0.7	CVRvars=3	Class=1	pf=0.92
New	Load.0x0089E4C0_16_1	Phases=1	Bus1=0x0089E4C0_drop-16-1.2	kW=3.135	kvar=1.4275	yearly=23	kV=0.24	model=4	numcust=1 CVRwatt=0.7	CVRvars=3	Class=1	pf=0.92
New	Load.0x0089E4C0_16_2	Phases=1	Bus1=0x0089E4C0_drop-16-2.2	kW=3.135	kvar=1.4275	yearly=23	kV=0.24	model=4	numcust=1 CVRwatt=0.7	CVRvars=3	Class=1	pf=0.92
New	Load.0x0089E4C0_16_3	Phases=1	Bus1=0x0089E4C0_drop-16-3.2	kW=3.135	kvar=1.4275	yearly=23	kV=0.24	model=4	numcust=1 CVRwatt=0.7	CVRvars=3	Class=1	pf=0.92
New	Load.0x0089E4C0_16_4	Phases=1	Bus1=0x0089E4C0_drop-16-4.2	kW=3.135	kvar=1.4275	yearly=23	kV=0.24	model=4	numcust=1 CVRwatt=0.7	CVRvars=3	Class=1	pf=0.92
New	Load.0x0089EBA0_18_1	Phases=1	Bus1=0x0089EBA0_drop-18-1.3	kW=3.24972	kvar=1.49763714285714	yearly=23	kV=0.24	model=4	numcust=1 CVRwatt=0.7	CVRvars=3	Class=1	pf=0.92
New	Load.0x0089EBA0_18_2	Phases=1	Bus1=0x0089EBA0_drop-18-2.3	kW=3.24972	kvar=1.49763714285714	yearly=23	kV=0.24	model=4	numcust=1 CVRwatt=0.7	CVRvars=3	Class=1	pf=0.92
New	Load.0x0089EBA0_18_3	Phases=1	Bus1=0x0089EBA0_drop-18-3.3	kW=3.24972	kvar=1.49763714285714	yearly=23	kV=0.24	model=4	numcust=1 CVRwatt=0.7	CVRvars=3	Class=1	pf=0.92
New	Load.0x0089EBA0_18_4	Phases=1	Bus1=0x0089EBA0_drop-18-4.3	kW=3.24972	kvar=1.49763714285714	yearly=23	kV=0.24	model=4	numcust=1 CVRwatt=0.7	CVRvars=3	Class=1	pf=0.92
New	Load.0x0089EBA0_18_5	Phases=1	Bus1=0x0089EBA0_drop-18-5.3	kW=3.24972	kvar=1.49763714285714	yearly=23	kV=0.24	model=4	numcust=1 CVRwatt=0.7	CVRvars=3	Class=1	pf=0.92
New	Load.0x0089EBA0_18_6	Phases=1	Bus1=0x0089EBA0_drop-18-6.3	kW=3.24972	kvar=1.49763714285714	yearly=23	kV=0.24	model=4	numcust=1 CVRwatt=0.7	CVRvars=3	Class=1	pf=0.92
New	Load.0x0089EBA0_18_7	Phases=1	Bus1=0x0089EBA0_drop-18-7.3	kW=3.24972	kvar=1.49763714285714	yearly=23	kV=0.24	model=4	numcust=1 CVRwatt=0.7	CVRvars=3	Class=1	pf=0.92
New	Load.0x0089EBA0_18_8	Phases=1	Bus1=0x0089EBA0_drop-18-8.3	kW=3.24972	kvar=1.49763714285714	yearly=23	kV=0.24	model=4	numcust=1 CVRwatt=0.7	CVRvars=3	Class=1	pf=0.92
New	Load.0x0089EBA0_18_9	Phases=1	Bus1=0x0089EBA0_drop-18-9.3	kW=3.24972	kvar=1.49763714285714	yearly=23	kV=0.24	model=4	numcust=1 CVRwatt=0.7	CVRvars=3	Class=1	pf=0.92
New	Load.0x0089EBA0_18_10	Phases=1	Bus1=0x0089EBA0_drop-18-10.3	kW=3.24972	kvar=1.49763714285714	yearly=23	kV=0.24	model=4	numcust=1 CVRwatt=0.7	CVRvars=3	Class=1	pf=0.92
New	Load.0x0089EBA0_18_11	Phases=1	Bus1=0x0089EBA0_drop-18-11.3	kW=3.24972	kvar=1.49763714285714	yearly=23	kV=0.24	model=4	numcust=1 CVRwatt=0.7	CVRvars=3	Class=1	pf=0.92
New	Load.0x0089EBA0_18_12	Phases=1	Bus1=0x0089EBA0_drop-18-12.3	kW=3.24972	kvar=1.49763714285714	yearly=23	kV=0.24	model=4	numcust=1 CVRwatt=0.7	CVRvars=3	Class=1	pf=0.92
New	Load.0x0089EBA0_18_13	Phases=1	Bus1=0x0089EBA0_drop-18-13.3	kW=3.24972	kvar=1.49763714285714	yearly=23	kV=0.24	model=4	numcust=1 CVRwatt=0.7	CVRvars=3	Class=1	pf=0.92
New	Load.0x0089EBA0_18_14	Phases=1	Bus1=0x0089EBA0_drop-18-14.3	kW=3.24972	kvar=1.49763714285714	yearly=23	kV=0.24	model=4	numcust=1 CVRwatt=0.7	CVRvars=3	Class=1	pf=0.92
New	Load.0x0089EBA0_19_1	Phases=1	Bus1=0x0089EBA0_drop-19-1.3	kW=4.02696	kvar=1.70556	yearly=26	kV=0.24	model=4	numcust=1 CVRwatt=0.7	CVRvars=3	Class=1	pf=0.92
New	Load.0x0089EBA0_19_2	Phases=1	Bus1=0x0089EBA0_drop-19-2.3	kW=4.02696	kvar=1.70556	yearly=26	kV=0.24	model=4	numcust=1 CVRwatt=0.7	CVRvars=3	Class=1	pf=0.92
New	Load.0x0089EBA0_20_1	Phases=1	Bus1=0x0089EBA0_drop-20-1.3	kW=0	kvar=0.01952	yearly=36	kV=0.24	model=4	numcust=1 CVRwatt=0.7	CVRvars=3	Class=1	pf=0.92
New	Load.0x0089F280_21_1	Phases=1	Bus1=0x0089F280_drop-21-1.3	kW=3.53195172727273	kvar=1.60691036363636	yearly=23	kV=0.24	model=4	numcust=1 CVRwatt=0.7	CVRvars=3	Class=1	pf=0.92
New	Load.0x0089F280_21_2	Phases=1	Bus1=0x0089F280_drop-21-2.3	kW=3.53195172727273	kvar=1.60691036363636	yearly=23	kV=0.24	model=4	numcust=1 CVRwatt=0.7	CVRvars=3	Class=1	pf=0.92
New	Load.0x0089F280_21_3	Phases=1	Bus1=0x0089F280_drop-21-3.3	kW=3.53195172727273	kvar=1.60691036363636	yearly=23	kV=0.24	model=4	numcust=1 CVRwatt=0.7	CVRvars=3	Class=1	pf=0.92
New	Load.0x0089F280_21_4	Phases=1	Bus1=0x0089F280_drop-21-4.3	kW=3.53195172727273	kvar=1.60691036363636	yearly=23	kV=0.24	model=4	numcust=1 CVRwatt=0.7	CVRvars=3	Class=1	pf=0.92
New	Load.0x0089F280_21_5	Phases=1	Bus1=0x0089F280_drop-21-5.3	kW=3.53195172727273	kvar=1.60691036363636	yearly=23	kV=0.24	model=4	numcust=1 CVRwatt=0.7	CVRvars=3	Class=1	pf=0.92
New	Load.0x0089F280_21_6	Phases=1	Bus1=0x0089F280_drop-21-6.3	kW=3.53195172727273	kvar=1.60691036363636	yearly=23	kV=0.24	model=4	numcust=1 CVRwatt=0.7	CVRvars=3	Class=1	pf=0.92
New	Load.0x0089F280_21_7	Phases=1	Bus1=0x0089F280_drop-21-7.3	kW=3.53195172727273	kvar=1.60691036363636	yearly=23	kV=0.24	model=4	numcust=1 CVRwatt=0.7	CVRvars=3	Class=1	pf=0.92
New	Load.0x0089F280_21_8	Phases=1	Bus1=0x0089F280_drop-21-8.3	kW=3.53195172727273	kvar=1.60691036363636	yearly=23	kV=0.24	model=4	numcust=1 CVRwatt=0.7	CVRvars=3	Class=1	pf=0.92
New	Load.0x0089F280_21_9	Phases=1	Bus1=0x0089F280_drop-21-9.3	kW=3.53195172727273	kvar=1.60691036363636	yearly=23	kV=0.24	model=4	numcust=1 CVRwatt=0.7	CVRvars=3	Class=1	pf=0.92
New	Load.0x0089F280_21_10	Phases=1	Bus1=0x0089F280_drop-21-10.3	kW=3.53195172727273	kvar=1.60691036363636	yearly=23	kV=0.24	model=4	numcust=1 CVRwatt=0.7	CVRvars=3	Class=1	pf=0.92
New	Load.0x0089F280_21_11	Phases=1	Bus1=0x0089F280_drop-21-11.3	kW=3.53195172727273	kvar=1.60691036363636	yearly=23	kV=0.24	model=4	numcust=1 CVRwatt=0.7	CVRvars=3	Class=1	pf=0.92
New	Load.0x0089F280_22_1	Phases=1	Bus1=0x0089F280_drop-22-1.3	kW=2.27284366666667	kvar=1.0405	yearly=26	kV=0.24	model=4	numcust=1 CVRwatt=0.7	CVRvars=3	Class=1	pf=0.92
New	Load.0x0089F280_22_2	Phases=1	Bus1=0x0089F280_drop-22-2.3	kW=2.27284366666667	kvar=1.0405	yearly=26	kV=0.24	model=4	numcust=1 CVRwatt=0.7	CVRvars=3	Class=1	pf=0.92
New	Load.0x0089F280_22_3	Phases=1	Bus1=0x0089F280_drop-22-3.3	kW=2.27284366666667	kvar=1.0405	yearly=26	kV=0.24	model=4	numcust=1 CVRwatt=0.7	CVRvars=3	Class=1	pf=0.92
New	Load.0x0089F280_23_1	Phases=1	Bus1=0x0089F280_drop-23-1.3	kW=0	kvar=0.012486	yearly=36	kV=0.24	model=4	numcust=1 CVRwatt=0.7	CVRvars=3	Class=1	pf=0.92
New	Load.0x008B8108_24_1	Phases=1	Bus1=0x008B8108_drop-24-1.1	kW=0	kvar=0	yearly=36	kV=0.24	model=4	numcust=1 CVRwatt=0.7	CVRvars=3	Class=1	pf=0.9
New	Load.0x008B8D10_25_1	Phases=1	Bus1=0x008B8D10_drop-25-1.2	kW=3.47370385714286	kvar=1.59279128571429	yearly=23	kV=0.24	model=4	numcust=1 CVRwatt=0.7	CVRvars=3	Class=1	pf=0.92
New	Load.0x008B8D10_25_2	Phases=1	Bus1=0x008B8D10_drop-25-2.2	kW=3.47370385714286	kvar=1.59279128571429	yearly=23	kV=0.24	model=4	numcust=1 CVRwatt=0.7	CVRvars=3	Class=1	pf=0.92
New	Load.0x008B8D10_25_3	Phases=1	Bus1=0x008B8D10_drop-25-3.2	kW=3.47370385714286	kvar=1.59279128571429	yearly=23	kV=0.24	model=4	numcust=1 CVRwatt=0.7	CVRvars=3	Class=1	pf=0.92
New	Load.0x008B8D10_25_4	Phases=1	Bus1=0x008B8D10_drop-25-4.2	kW=3.47370385714286	kvar=1.59279128571429	yearly=23	kV=0.24	model=4	numcust=1 CVRwatt=0.7	CVRvars=3	Class=1	pf=0.92
New	Load.0x008B8D10_25_5	Phases=1	Bus1=0x008B8D10_drop-25-5.2	kW=3.47370385714286	kvar=1.59279128571429	yearly=23	kV=0.24	model=4	numcust=1 CVRwatt=0.7	CVRvars=3	Class=1	pf=0.92
New	Load.0x008B8D10_25_6	Phases=1	Bus1=0x008B8D10_drop-25-6.2	kW=3.47370385714286	kvar=1.59279128571429	yearly=23	kV=0.24	model=4	numcust=1 CVRwatt=0.7	CVRvars=3	Class=1	pf=0.92
New	Load.0x008B8D10_25_7	Phases=1	Bus1=0x008B8D10_drop-25-7.2	kW=3.47370385714286	kvar=1.59279128571429	yearly=23	kV=0.24	model=4	numcust=1 CVRwatt=0.7	CVRvars=3	Class=1	pf=0.92
New	Load.0x008B8D10_26_1	Phases=1	Bus1=0x008B8D10_drop-26-1.2	kW=3.756188	kvar=1.537377	yearly=26	kV=0.24	model=4	numcust=1 CVRwatt=0.7	CVRvars=3	Class=1	pf=0.92
New	Load.0x008B8D10_27_1	Phases=1	Bus1=0x008B8D10_drop-27-1.2	kW=0.297885	kvar=0.243084	yearly=36	kV=0.24	model=4	numcust=1 CVRwatt=0.7	CVRvars=3	Class=1	pf=0.92
New	Load.0x008C2490_28_1	Phases=1	Bus1=0x008C2490_drop-28-1.2	kW=2.880468	kvar=1.31476090909091	yearly=23	kV=0.24	model=4	numcust=1 CVRwatt=0.7	CVRvars=3	Class=1	pf=0.92
New	Load.0x008C2490_28_2	Phases=1	Bus1=0x008C2490_drop-28-2.2	kW=2.880468	kvar=1.31476090909091	yearly=23	kV=0.24	model=4	numcust=1 CVRwatt=0.7	CVRvars=3	Class=1	pf=0.92
New	Load.0x008C2490_28_3	Phases=1	Bus1=0x008C2490_drop-28-3.2	kW=2.880468	kvar=1.31476090909091	yearly=23	kV=0.24	model=4	numcust=1 CVRwatt=0.7	CVRvars=3	Class=1	pf=0.92
New	Load.0x008C2490_28_4	Phases=1	Bus1=0x008C2490_drop-28-4.2	kW=2.880468	kvar=1.31476090909091	yearly=23	kV=0.24	model=4	numcust=1 CVRwatt=0.7	CVRvars=3	Class=1	pf=0.92
New	Load.0x008C2490_28_5	Phases=1	Bus1=0x008C2490_drop-28-5.2	kW=2.880468	kvar=1.31476090909091	yearly=23	kV=0.24	model=4	numcust=1 CVRwatt=0.7	CVRvars=3	Class=1	pf=0.92
New	Load.0x008C2490_28_6	Phases=1	Bus1=0x008C2490_drop-28-6.2	kW=2.880468	kvar=1.31476090909091	yearly=23	kV=0.24	model=4	numcust=1 CVRwatt=0.7	CVRvars=3	Class=1	pf=0.92
New	Load.0x008C2490_28_7	Phases=1	Bus1=0x008C2490_drop-28-7.2	kW=2.880468	kvar=1.31476090909091	yearly=23	kV=0.24	model=4	numcust=1 CVRwatt=0.7	CVRvars=3	Class=1	pf=0.92
New	Load.0x008C2490_28_8	Phases=1	Bus1=0x008C2490_drop-28-8.2	kW=2.880468	kvar=1.31476090909091	yearly=23	kV=0.24	model=4	numcust=1 CVRwatt=0.7	CVRvars=3	Class=1	pf=0.92
New	Load.0x008C2490_28_9	Phases=1	Bus1=0x008C2490_drop-28-9.2	kW=2.880468	kvar=1.31476090909091	yearly=23	kV=0.24	model=4	numcust=1 CVRwatt=0.7	CVRvars=3	Class=1	pf=0.92
New	Load.0x008C2490_28_10	Phases=1	Bus1=0x008C2490_drop-28-10.2	kW=2.880468	kvar=1.31476090909091	yearly=23	kV=0.24	model=4	numcust=1 CVRwatt=0.7	CVRvars=3	Class=1	pf=0.92
New	Load.0x008C2490_28_11	Phases=1	Bus1=0x008C2490_drop-28-11.2	kW=2.880468	kvar=1.31476090909091	yearly=23	kV=0.24	model=4	numcust=1 CVRwatt=0.7	CVRvars=3	Class=1	pf=0.92
New	Load.0x008C2490_29_1	Phases=1	Bus1=0x008C2490_drop-29-1.2	kW=4.272426	kvar=1.933815	yearly=26	kV=0.24	model=4	numcust=1 CVRwatt=0.7	CVRvars=3	Class=1	pf=0.92
New	Load.0x008C2490_29_2	Phases=1	Bus1=0x008C2490_drop-29-2.2	kW=4.272426	kvar=1.933815	yearly=26	kV=0.24	model=4	numcust=1 CVRwatt=0.7	CVRvars=3	Class=1	pf=0.92
New	Load.0x008C2648_30_1	Phases=1	Bus1=0x008C2648_drop-30-1.2	kW=2.87434	kvar=1.29399022222222	yearly=23	kV=0.24	model=4	numcust=1 CVRwatt=0.7	CVRvars=3	Class=1	pf=0.92
New	Load.0x008C2648_30_2	Phases=1	Bus1=0x008C2648_drop-30-2.2	kW=2.87434	kvar=1.29399022222222	yearly=23	kV=0.24	model=4	numcust=1 CVRwatt=0.7	CVRvars=3	Class=1	pf=0.92
New	Load.0x008C2648_30_3	Phases=1	Bus1=0x008C2648_drop-30-3.2	kW=2.87434	kvar=1.29399022222222	yearly=23	kV=0.24	model=4	numcust=1 CVRwatt=0.7	CVRvars=3	Class=1	pf=0.92
New	Load.0x008C2648_30_4	Phases=1	Bus1=0x008C2648_drop-30-4.2	kW=2.87434	kvar=1.29399022222222	yearly=23	kV=0.24	model=4	numcust=1 CVRwatt=0.7	CVRvars=3	Class=1	pf=0.92
New	Load.0x008C2648_30_5	Phases=1	Bus1=0x008C2648_drop-30-5.2	kW=2.87434	kvar=1.29399022222222	yearly=23	kV=0.24	model=4	numcust=1 CVRwatt=0.7	CVRvars=3	Class=1	pf=0.92
New	Load.0x008C2648_30_6	Phases=1	Bus1=0x008C2648_drop-30-6.2	kW=2.87434	kvar=1.29399022222222	yearly=23	kV=0.24	model=4	numcust=1 CVRwatt=0.7	CVRvars=3	Class=1	pf=0.92
New	Load.0x008C2648_30_7	Phases=1	Bus1=0x008C2648_drop-30-7.2	kW=2.87434	kvar=1.29399022222222	yearly=23	kV=0.24	model=4	numcust=1 CVRwatt=0.7	CVRvars=3	Class=1	pf=0.92
New	Load.0x008C2648_30_8	Phases=1	Bus1=0x008C2648_drop-30-8.2	kW=2.87434	kvar=1.29399022222222	yearly=23	kV=0.24	model=4	numcust=1 CVRwatt=0.7	CVRvars=3	Class=1	pf=0.92
New	Load.0x008C2648_30_9	Phases=1	Bus1=0x008C2648_drop-30-9.2	kW=2.87434	kvar=1.29399022222222	yearly=23	kV=0.24	model=4	numcust=1 CVRwatt=0.7	CVRvars=3	Class=1	pf=0.92
New	Load.0x008C2648_31_1	Phases=1	Bus1=0x008C2648_drop-31-1.2	kW=3.46094	kvar=1.714088	yearly=26	kV=0.24	model=4	numcust=1 CVRwatt=0.7	CVRvars=3	Class=1	pf=0.92
New	Load.0x008C2B70_32_1	Phases=1	Bus1=0x008C2B70_drop-32-1.2	kW=2.8458054375	kvar=1.336192	yearly=23	kV=0.24	model=4	numcust=1 CVRwatt=0.7	CVRvars=3	Class=1	pf=0.92
New	Load.0x008C2B70_32_2	Phases=1	Bus1=0x008C2B70_drop-32-2.2	kW=2.8458054375	kvar=1.336192	yearly=23	kV=0.24	model=4	numcust=1 CVRwatt=0.7	CVRvars=3	Class=1	pf=0.92
New	Load.0x008C2B70_32_3	Phases=1	Bus1=0x008C2B70_drop-32-3.2	kW=2.8458054375	kvar=1.336192	yearly=23	kV=0.24	model=4	numcust=1 CVRwatt=0.7	CVRvars=3	Class=1	pf=0.92
New	Load.0x008C2B70_32_4	Phases=1	Bus1=0x008C2B70_drop-32-4.2	kW=2.8458054375	kvar=1.336192	yearly=23	kV=0.24	model=4	numcust=1 CVRwatt=0.7	CVRvars=3	Class=1	pf=0.92
New	Load.0x008C2B70_32_5	Phases=1	Bus1=0x008C2B70_drop-32-5.2	kW=2.8458054375	kvar=1.336192	yearly=23	kV=0.24	model=4	numcust=1 CVRwatt=0.7	CVRvars=3	Class=1	pf=0.92
New	Load.0x008C2B70_32_6	Phases=1	Bus1=0x008C2B70_drop-32-6.2	kW=2.8458054375	kvar=1.336192	yearly=23	kV=0.24	model=4	numcust=1 CVRwatt=0.7	CVRvars=3	Class=1	pf=0.92
New	Load.0x008C2B70_32_7	Phases=1	Bus1=0x008C2B70_drop-32-7.2	kW=2.8458054375	kvar=1.336192	yearly=23	kV=0.24	model=4	numcust=1 CVRwatt=0.7	CVRvars=3	Class=1	pf=0.92
New	Load.0x008C2B70_32_8	Phases=1	Bus1=0x008C2B70_drop-32-8.2	kW=2.8458054375	kvar=1.336192	yearly=23	kV=0.24	model=4	numcust=1 CVRwatt=0.7	CVRvars=3	Class=1	pf=0.92
New	Load.0x008C2B70_32_9	Phases=1	Bus1=0x008C2B70_drop-32-9.2	kW=2.8458054375	kvar=1.336192	yearly=23	kV=0.24	model=4	numcust=1 CVRwatt=0.7	CVRvars=3	Class=1	pf=0.92
New	Load.0x008C2B70_32_10	Phases=1	Bus1=0x008C2B70_drop-32-10.2	kW=2.8458054375	kvar=1.336192	yearly=23	kV=0.24	model=4	numcust=1 CVRwatt=0.7	CVRvars=3	Class=1	pf=0.92
New	Load.0x008C2B70_32_11	Phases=1	Bus1=0x008C2B70_drop-32-11.2	kW=2.8458054375	kvar=1.336192	yearly=23	kV=0.24	model=4	numcust=1 CVRwatt=0.7	CVRvars=3	Class=1	pf=0.92
New	Load.0x008C2B70_32_12	Phases=1	Bus1=0x008C2B70_drop-32-12.2	kW=2.8458054375	kvar=1.336192	yearly=23	kV=0.24	model=4	numcust=1 CVRwatt=0.7	CVRvars=3	Class=1	pf=0.92
New	Load.0x008C2B70_32_13	Phases=1	Bus1=0x008C2B70_drop-32-13.2	kW=2.8458054375	kvar=1.336192	yearly=23	kV=0.24	model=4	numcust=1 CVRwatt=0.7	CVRvars=3	Class=1	pf=0.92
New	Load.0x008C2B70_32_14	Phases=1	Bus1=0x008C2B70_drop-32-14.2	kW=2.8458054375	kvar=1.336192	yearly=23	kV=0.24	model=4	numcust=1 CVRwatt=0.7	CVRvars=3	Class=1	pf=0.92
New	Load.0x008C2B70_32_15	Phases=1	Bus1=0x008C2B70_drop-32-15.2	kW=2.8458054375	kvar=1.336192	yearly=23	kV=0.24	model=4	numcust=1 CVRwatt=0.7	CVRvars=3	Class=1	pf=0.92
New	Load.0x008C2B70_32_16	Phases=1	Bus1=0x008C2B70_drop-32-16.2	kW=2.8458054375	kvar=1.336192	yearly=23	kV=0.24	model=4	numcust=1 CVRwatt=0.7	CVRvars=3	Class=1	pf=0.92
New	Load.0x008C2B70_33_1	Phases=1	Bus1=0x008C2B70_drop-33-1.2	kW=5.737113	kvar=1.980928	yearly=26	kV=0.24	model=4	numcust=1 CVRwatt=0.7	CVRvars=3	Class=1	pf=0.92
New	Load.0x008C4BB0_34_1	Phases=1	Bus1=0x008C4BB0_drop-34-1.1	kW=2.33904	kvar=1.09893190909091	yearly=23	kV=0.24	model=4	numcust=1 CVRwatt=0.7	CVRvars=3	Class=1	pf=0.92
New	Load.0x008C4BB0_34_2	Phases=1	Bus1=0x008C4BB0_drop-34-2.1	kW=2.33904	kvar=1.09893190909091	yearly=23	kV=0.24	model=4	numcust=1 CVRwatt=0.7	CVRvars=3	Class=1	pf=0.92
New	Load.0x008C4BB0_34_3	Phases=1	Bus1=0x008C4BB0_drop-34-3.1	kW=2.33904	kvar=1.09893190909091	yearly=23	kV=0.24	model=4	numcust=1 CVRwatt=0.7	CVRvars=3	Class=1	pf=0.92
New	Load.0x008C4BB0_34_4	Phases=1	Bus1=0x008C4BB0_drop-34-4.1	kW=2.33904	kvar=1.09893190909091	yearly=23	kV=0.24	model=4	numcust=1 CVRwatt=0.7	CVRvars=3	Class=1	pf=0.92
New	Load.0x008C4BB0_34_5	Phases=1	Bus1=0x008C4BB0_drop-34-5.1	kW=2.33904	kvar=1.09893190909091	yearly=23	kV=0.24	model=4	numcust=1 CVRwatt=0.7	CVRvars=3	Class=1	pf=0.92
New	Load.0x008C4BB0_34_6	Phases=1	Bus1=0x008C4BB0_drop-34-6.1	kW=2.33904	kvar=1.09893190909091	yearly=23	kV=0.24	model=4	numcust=1 CVRwatt=0.7	CVRvars=3	Class=1	pf=0.92
New	Load.0x008C4BB0_34_7	Phases=1	Bus1=0x008C4BB0_drop-34-7.1	kW=2.33904	kvar=1.09893190909091	yearly=23	kV=0.24	model=4	numcust=1 CVRwatt=0.7	CVRvars=3	Class=1	pf=0.92
New	Load.0x008C4BB0_34_8	Phases=1	Bus1=0x008C4BB0_drop-34-8.1	kW=2.33904	kvar=1.09893190909091	yearly=23	kV=0.24	model=4	numcust=1 CVRwatt=0.7	CVRvars=3	Class=1	pf=0.92
New	Load.0x008C4BB0_34_9	Phases=1	Bus1=0x008C4BB0_drop-34-9.1	kW=2.33904	kvar=1.09893190909091	yearly=23	kV=0.24	model=4	numcust=1 CVRwatt=0.7	CVRvars=3	Class=1	pf=0.92
New	Load.0x008C4BB0_34_10	Phases=1	Bus1=0x008C4BB0_drop-34-10.1	kW=2.33904	kvar=1.09893190909091	yearly=23	kV=0.24	model=4	numcust=1 CVRwatt=0.7	CVRvars=3	Class=1	pf=0.92
New	Load.0x008C4BB0_34_11	Phases=1	Bus1=0x008C4BB0_drop-34-11.1	kW=2.33904	kvar=1.09893190909091	yearly=23	kV=0.24	model=4	numcust=1 CVRwatt=0.7	CVRvars=3	Class=1	pf=0.92
New	Load.0x008C4BB0_35_1	Phases=1	Bus1=0x008C4BB0_drop-35-1.1	kW=1.36488	kvar=0.408807	yearly=26	kV=0.24	model=4	numcust=1 CVRwatt=0.7	CVRvars=3	Class=1	pf=0.92
New	Load.0x008C4BB0_36_1	Phases=1	Bus1=0x008C4BB0_drop-36-1.1	kW=1.94568	kvar=0.731619	yearly=36	kV=0.24	model=4	numcust=1 CVRwatt=0.7	CVRvars=3	Class=1	pf=0.92
New	Load.0x008C4D68_37_1	Phases=1	Bus1=0x008C4D68_drop-37-1.3	kW=2.8825	kvar=1.3125	yearly=23	kV=0.24	model=4	numcust=1 CVRwatt=0.7	CVRvars=3	Class=1	pf=0.92
New	Load.0x008C4D68_37_2	Phases=1	Bus1=0x008C4D68_drop-37-2.3	kW=2.8825	kvar=1.3125	yearly=23	kV=0.24	model=4	numcust=1 CVRwatt=0.7	CVRvars=3	Class=1	pf=0.92
New	Load.0x008C4D68_37_3	Phases=1	Bus1=0x008C4D68_drop-37-3.3	kW=2.8825	kvar=1.3125	yearly=23	kV=0.24	model=4	numcust=1 CVRwatt=0.7	CVRvars=3	Class=1	pf=0.92
New	Load.0x008C4D68_37_4	Phases=1	Bus1=0x008C4D68_drop-37-4.3	kW=2.8825	kvar=1.3125	yearly=23	kV=0.24	model=4	numcust=1 CVRwatt=0.7	CVRvars=3	Class=1	pf=0.92
New	Load.0x008C50D8_38_1	Phases=1	Bus1=0x008C50D8_drop-38-1.3	kW=3.21117571428571	kvar=1.43638742857143	yearly=23	kV=0.24	model=4	numcust=1 CVRwatt=0.7	CVRvars=3	Class=1	pf=0.92
New	Load.0x008C50D8_38_2	Phases=1	Bus1=0x008C50D8_drop-38-2.3	kW=3.21117571428571	kvar=1.43638742857143	yearly=23	kV=0.24	model=4	numcust=1 CVRwatt=0.7	CVRvars=3	Class=1	pf=0.92
New	Load.0x008C50D8_38_3	Phases=1	Bus1=0x008C50D8_drop-38-3.3	kW=3.21117571428571	kvar=1.43638742857143	yearly=23	kV=0.24	model=4	numcust=1 CVRwatt=0.7	CVRvars=3	Class=1	pf=0.92
New	Load.0x008C50D8_38_4	Phases=1	Bus1=0x008C50D8_drop-38-4.3	kW=3.21117571428571	kvar=1.43638742857143	yearly=23	kV=0.24	model=4	numcust=1 CVRwatt=0.7	CVRvars=3	Class=1	pf=0.92
New	Load.0x008C50D8_38_5	Phases=1	Bus1=0x008C50D8_drop-38-5.3	kW=3.21117571428571	kvar=1.43638742857143	yearly=23	kV=0.24	model=4	numcust=1 CVRwatt=0.7	CVRvars=3	Class=1	pf=0.92
New	Load.0x008C50D8_38_6	Phases=1	Bus1=0x008C50D8_drop-38-6.3	kW=3.21117571428571	kvar=1.43638742857143	yearly=23	kV=0.24	model=4	numcust=1 CVRwatt=0.7	CVRvars=3	Class=1	pf=0.92
New	Load.0x008C50D8_38_7	Phases=1	Bus1=0x008C50D8_drop-38-7.3	kW=3.21117571428571	kvar=1.43638742857143	yearly=23	kV=0.24	model=4	numcust=1 CVRwatt=0.7	CVRvars=3	Class=1	pf=0.92
New	Load.0x008C50D8_39_1	Phases=1	Bus1=0x008C50D8_drop-39-1.3	kW=4.02392333333333	kvar=1.895096	yearly=26	kV=0.24	model=4	numcust=1 CVRwatt=0.7	CVRvars=3	Class=1	pf=0.92
New	Load.0x008C50D8_39_2	Phases=1	Bus1=0x008C50D8_drop-39-2.3	kW=4.02392333333333	kvar=1.895096	yearly=26	kV=0.24	model=4	numcust=1 CVRwatt=0.7	CVRvars=3	Class=1	pf=0.92
New	Load.0x008C50D8_39_3	Phases=1	Bus1=0x008C50D8_drop-39-3.3	kW=4.02392333333333	kvar=1.895096	yearly=26	kV=0.24	model=4	numcust=1 CVRwatt=0.7	CVRvars=3	Class=1	pf=0.92
New	Load.0x008C5290_40_1	Phases=1	Bus1=0x008C5290_drop-40-1.1	kW=3.12833333333333	kvar=1.425	yearly=23	kV=0.24	model=4	numcust=1 CVRwatt=0.7	CVRvars=3	Class=1	pf=0.92
New	Load.0x008C5290_40_2	Phases=1	Bus1=0x008C5290_drop-40-2.1	kW=3.12833333333333	kvar=1.425	yearly=23	kV=0.24	model=4	numcust=1 CVRwatt=0.7	CVRvars=3	Class=1	pf=0.92
New	Load.0x008C5290_40_3	Phases=1	Bus1=0x008C5290_drop-40-3.1	kW=3.12833333333333	kvar=1.425	yearly=23	kV=0.24	model=4	numcust=1 CVRwatt=0.7	CVRvars=3	Class=1	pf=0.92
New	Load.0x008C5290_40_4	Phases=1	Bus1=0x008C5290_drop-40-4.1	kW=3.12833333333333	kvar=1.425	yearly=23	kV=0.24	model=4	numcust=1 CVRwatt=0.7	CVRvars=3	Class=1	pf=0.92
New	Load.0x008C5290_40_5	Phases=1	Bus1=0x008C5290_drop-40-5.1	kW=3.12833333333333	kvar=1.425	yearly=23	kV=0.24	model=4	numcust=1 CVRwatt=0.7	CVRvars=3	Class=1	pf=0.92
New	Load.0x008C5290_40_6	Phases=1	Bus1=0x008C5290_drop-40-6.1	kW=3.12833333333333	kvar=1.425	yearly=23	kV=0.24	model=4	numcust=1 CVRwatt=0.7	CVRvars=3	Class=1	pf=0.92
New	Load.0x008C5970_41_1	Phases=1	Bus1=0x008C5970_drop-41-1.2	kW=2.71181818181818	kvar=1.23545454545455	yearly=23	kV=0.24	model=4	numcust=1 CVRwatt=0.7	CVRvars=3	Class=1	pf=0.92
New	Load.0x008C5970_41_2	Phases=1	Bus1=0x008C5970_drop-41-2.2	kW=2.71181818181818	kvar=1.23545454545455	yearly=23	kV=0.24	model=4	numcust=1 CVRwatt=0.7	CVRvars=3	Class=1	pf=0.92
New	Load.0x008C5970_41_3	Phases=1	Bus1=0x008C5970_drop-41-3.2	kW=2.71181818181818	kvar=1.23545454545455	yearly=23	kV=0.24	model=4	numcust=1 CVRwatt=0.7	CVRvars=3	Class=1	pf=0.92
...

! THESE SEEM TO BE the buggers that are messing up the results:
!New	Load.0x0089E678_17_1	Phases=3	Bus1=0x0089E678_drop-17-1	kW=104.61	kvar=47.67	yearly=36	kV=0.208	model=4	numcust=1 CVRwatt=0.7	CVRvars=3	Class=1	pf=0.9
!New	Load.0x008D3070_118_1	Phases=3	Bus1=0x008D3070_drop-118-1	kW=188.64	kvar=85.95	yearly=32	kV=0.48	model=4	numcust=1 CVRwatt=0.7	CVRvars=3	Class=1	pf=0.9
!New	Load.0x008D3070_119_1	Phases=3	Bus1=0x008D3070_drop-119-1	kW=0	kvar=0	yearly=36	kV=0.48	model=4	numcust=1 CVRwatt=0.7	CVRvars=3	Class=1	pf=0.9
!New	Load.0x008E6FB0_237_1	Phases=3	Bus1=0x008E6FB0_drop-237-1	kW=27.165	kvar=12.375	yearly=36	kV=0.208	model=4	numcust=1 CVRwatt=0.7	CVRvars=3	Class=1	pf=0.9
!New	Load.0x008E6FB0_237_2	Phases=3	Bus1=0x008E6FB0_drop-237-2	kW=27.165	kvar=12.375	yearly=36	kV=0.208	model=4	numcust=1 CVRwatt=0.7	CVRvars=3	Class=1	pf=0.9
!New	Load.0x008E7A00_244_1	Phases=3	Bus1=0x008E7A00_drop-244-1	kW=93.51	kvar=42.6	yearly=32	kV=0.208	model=4	numcust=1 CVRwatt=0.7	CVRvars=3	Class=1	pf=0.9

New	Load.0x0089E678_17_1_1	Phases=1	Bus1=0x0089E678_drop-17-1.1	kW=34.9	kvar=17.9	yearly=36	kV=0.208	model=4	numcust=1 CVRwatt=0.7	CVRvars=3	Class=1	pf=0.9
New	Load.0x008D3070_118_1_1	Phases=1	Bus1=0x008D3070_drop-118-1.1	kW=62.8	kvar=28.5	yearly=32	kV=0.48	model=4	numcust=1 CVRwatt=0.7	CVRvars=3	Class=1	pf=0.9
New	Load.0x008E6FB0_237_1_1	Phases=1	Bus1=0x008E6FB0_drop-237-1.1	kW=9.06	kvar=4.1	yearly=36	kV=0.208	model=4	numcust=1 CVRwatt=0.7	CVRvars=3	Class=1	pf=0.9
New	Load.0x008E6FB0_237_2_1	Phases=1	Bus1=0x008E6FB0_drop-237-2.1	kW=9.06	kvar=4.1	yearly=36	kV=0.208	model=4	numcust=1 CVRwatt=0.7	CVRvars=3	Class=1	pf=0.9
New	Load.0x008E7A00_244_1_1	Phases=1	Bus1=0x008E7A00_drop-244-1.1	kW=31.3	kvar=14.2	yearly=32	kV=0.208	model=4	numcust=1 CVRwatt=0.7	CVRvars=3	Class=1	pf=0.9
New	Load.0x0089E678_17_1_2	Phases=1	Bus1=0x0089E678_drop-17-1.2	kW=34.9	kvar=17.9	yearly=36	kV=0.208	model=4	numcust=1 CVRwatt=0.7	CVRvars=3	Class=1	pf=0.9
New	Load.0x008D3070_118_1_2	Phases=1	Bus1=0x008D3070_drop-118-1.2	kW=62.8	kvar=28.5	yearly=32	kV=0.48	model=4	numcust=1 CVRwatt=0.7	CVRvars=3	Class=1	pf=0.9
New	Load.0x008E6FB0_237_1_2	Phases=1	Bus1=0x008E6FB0_drop-237-1.2	kW=9.06	kvar=4.1	yearly=36	kV=0.208	model=4	numcust=1 CVRwatt=0.7	CVRvars=3	Class=1	pf=0.9
New	Load.0x008E6FB0_237_2_2	Phases=1	Bus1=0x008E6FB0_drop-237-2.2	kW=9.06	kvar=4.1	yearly=36	kV=0.208	model=4	numcust=1 CVRwatt=0.7	CVRvars=3	Class=1	pf=0.9
New	Load.0x008E7A00_244_1_2	Phases=1	Bus1=0x008E7A00_drop-244-1.2	kW=31.3	kvar=14.2	yearly=32	kV=0.208	model=4	numcust=1 CVRwatt=0.7	CVRvars=3	Class=1	pf=0.9
New	Load.0x0089E678_17_1_3	Phases=1	Bus1=0x0089E678_drop-17-1.3	kW=34.9	kvar=17.9	yearly=36	kV=0.208	model=4	numcust=1 CVRwatt=0.7	CVRvars=3	Class=1	pf=0.9
New	Load.0x008D3070_118_1_3	Phases=1	Bus1=0x008D3070_drop-118-1.3	kW=62.8	kvar=28.5	yearly=32	kV=0.48	model=4	numcust=1 CVRwatt=0.7	CVRvars=3	Class=1	pf=0.9
New	Load.0x008E6FB0_237_1_3	Phases=1	Bus1=0x008E6FB0_drop-237-1.3	kW=9.06	kvar=4.1	yearly=36	kV=0.208	model=4	numcust=1 CVRwatt=0.7	CVRvars=3	Class=1	pf=0.9
New	Load.0x008E6FB0_237_2_3	Phases=1	Bus1=0x008E6FB0_drop-237-2.3	kW=9.06	kvar=4.1	yearly=36	kV=0.208	model=4	numcust=1 CVRwatt=0.7	CVRvars=3	Class=1	pf=0.9
New	Load.0x008E7A00_244_1_3	Phases=1	Bus1=0x008E7A00_drop-244-1.3	kW=31.3	kvar=14.2	yearly=32	kV=0.208	model=4	numcust=1 CVRwatt=0.7	CVRvars=3	Class=1	pf=0.9
